18
ModifiedRes-opt-11-5-7-15-125.log	Energy: -567275.7647398
C          1.91536       -1.80869        0.47458
O          2.53882       -1.84891       -0.54763
N          0.97238       -0.88652        0.75751
H          0.59637       -0.86037        1.67988
C          0.60516        0.16554       -0.17622
H          0.71666       -0.24511       -1.17036
C          1.54434        1.37424       -0.02947
O          1.19128        2.37761        0.52331
H         -0.96673        1.02859        1.03115
H         -1.09260        1.37215       -0.67850
C         -0.83467        0.61400        0.04396
S         -1.95640       -0.82134       -0.17736
C         -3.44851        0.00202       -0.10202
N         -4.45591        0.52725       -0.05318
N          2.76316        1.19583       -0.56699
H          2.05946       -2.53324        1.27314
H          3.05473        0.30573       -0.90843
H          3.44629        1.90539       -0.42099
