18
ModifiedRes-sp-11-5-7-15-276.log	Energy: -567367.0275219
C          1.99603       -1.92391        0.23266
O          2.53212       -1.85884       -0.87655
N          1.04907       -1.03422        0.64818
H          0.69085       -1.12408        1.59430
C          0.64864        0.13830       -0.15495
H          0.74378       -0.16224       -1.20915
C          1.60096        1.32127        0.11626
O          2.17852        1.39993        1.20002
H         -0.90221        0.85895        1.19441
H         -1.07038        1.40884       -0.48427
C         -0.79943        0.56055        0.14776
S         -1.97291       -0.82153       -0.20861
C         -3.43539        0.01978        0.00490
N         -4.43983        0.63729        0.12248
N          1.73558        2.22486       -0.89210
H          2.23712       -2.70940        0.96613
H          1.33682        2.05317       -1.80684
H          2.36681        2.99918       -0.73426
