18
ModifiedRes-sp-3-5-11-12-135.log	Energy: -567356.6724014
C         -3.04669       -0.81261        0.20176
O         -3.27012        0.05484        1.05377
N         -1.79835       -1.06750       -0.28677
H         -1.72325       -1.62793       -1.13045
C         -0.60171       -0.36207        0.21008
H         -0.75611       -0.15165        1.27880
C         -0.45802        0.98282       -0.54335
O          0.30046        1.10177       -1.50256
H          0.89883       -1.69329        1.02846
H          0.36347       -2.10727       -0.62846
C          0.64104       -1.29401        0.04522
S          2.21617       -0.62638       -0.65551
C          2.78331        0.13409        0.75532
N          3.13359        0.68458        1.74472
N         -1.25074        1.98500       -0.07920
H         -3.84406       -1.42625       -0.24632
H         -1.94509        1.78042        0.63487
H         -1.19434        2.89137       -0.52381
