%RWF=/scratch/bdw2292/Gau-ModifiedRes/,100GB
%Nosave
%Chk=ModifiedRes-opt-3-5-11-12-249.chk
%Mem=20GB
%Nproc=6
#P opt=(,maxcycle=400) HF/6-31G* MaxDisk=100GB

ModifiedRes Rotatable Bond Optimization on g2-node38.bme.utexas.edu

0 1
 C    1.930967   -1.827952    0.495116
 O    2.632848   -1.783408   -0.521914
 N    0.948211   -0.917761    0.754029
 H    0.557328   -0.893553    1.691164
 C    0.599602    0.162442   -0.185560
 H    0.714493   -0.248498   -1.198784
 C    1.580326    1.344026   -0.017454
 O    1.217652    2.349854    0.595297
 H   -1.288265    0.171938    0.938791
 H   -0.898282    1.700820    0.137682
 C   -0.868520    0.611688    0.033297
 S   -1.904398    0.126465   -1.412692
 C   -3.316856    0.999889   -1.044637
 N   -4.312761    1.598832   -0.810195
 N    2.807476    1.180832   -0.577625
 H    2.063753   -2.590583    1.278359
 H    3.057879    0.277202   -0.971434
 H    3.478847    1.932764   -0.497840

3 5 11 12 F
7 5 11 12 F
11 5 7 15 F
3 5 7 15 F
3 5 7 8 F
11 5 7 8 F
5 11 12 13 F

