18
ModifiedRes-opt-5-11-12-13-011.log	Energy: -567276.1065379
C          1.23137        1.92707       -0.82471
O          1.56817        2.32927        0.25254
N          0.71183        0.70575       -1.05527
H          0.52613        0.43902       -1.99601
C          0.43398       -0.23648        0.01328
H          0.15839        0.34095        0.88500
C          1.69394       -1.05811        0.33424
O          1.81991       -2.18619       -0.05537
H         -0.43945       -1.76466       -1.24043
H         -0.85175       -1.90162        0.44119
C         -0.69393       -1.19420       -0.35766
S         -2.28792       -0.39925       -0.76416
C         -2.66397        0.29655        0.74810
N         -2.92737        0.76706        1.74944
N          2.60983       -0.40610        1.06939
H          1.32382        2.53066       -1.72532
H          2.52753        0.57249        1.24310
H          3.48908       -0.84945        1.21739
