18
ModifiedRes-sp-3-5-11-12-040.log	Energy: -567368.9706194
C          1.50297        2.04147       -0.40707
O          2.51550        2.03855        0.30220
N          0.58169        1.03554       -0.38050
H         -0.09062        1.01289       -1.14090
C          0.62222       -0.07817        0.59477
H          1.04939        0.32454        1.52576
C          1.53625       -1.19513        0.04614
O          1.05232       -2.30412       -0.18792
H         -0.67942       -1.61434        1.39075
H         -1.26042        0.03882        1.68297
C         -0.78362       -0.61839        0.95308
S         -1.92145       -0.73614       -0.49953
C         -3.11438        0.39148       -0.05136
N         -3.90546        1.21523        0.26260
N          2.84633       -0.87840       -0.12908
H          1.28830        2.83792       -1.13689
H          3.18277        0.03825        0.15549
H          3.47208       -1.58945       -0.48341
