18
ModifiedRes-opt-3-5-11-12-230.log	Energy: -567273.7882337
C          2.78326       -1.37190        0.26095
O          3.17961       -1.07589       -0.82939
N          1.56860       -1.04012        0.74894
H          1.39368       -1.17840        1.72018
C          0.63785       -0.22463       -0.01349
H          0.80127       -0.46722       -1.05416
C          0.95165        1.25870        0.23704
O          0.39981        1.87298        1.10504
H         -0.90242       -1.65061        0.43414
H         -1.02155       -0.14000        1.35635
C         -0.78964       -0.57740        0.39761
S         -1.96261        0.08520       -0.84384
C         -3.42153       -0.30740       -0.05559
N         -4.40519       -0.56936        0.45139
N          1.89863        1.77131       -0.57122
H          3.37967       -1.95593        0.95893
H          2.47323        1.17165       -1.12254
H          2.23876        2.68348       -0.35959
