18
ModifiedRes-opt-3-5-11-12-287.log	Energy: -567275.7646977
C          1.91552       -1.80882        0.47444
O          2.53944       -1.84858       -0.54751
N          0.97273       -0.88655        0.75754
H          0.59512       -0.86187        1.67929
C          0.60520        0.16553       -0.17602
H          0.71661       -0.24492       -1.17029
C          1.54413        1.37452       -0.02956
O          1.19016        2.37863        0.52127
H         -0.96692        1.02762        1.03187
H         -1.09251        1.37251       -0.67756
C         -0.83469        0.61382        0.04435
S         -1.95642       -0.82138       -0.17826
C         -3.44854        0.00184       -0.10169
N         -4.45604        0.52678       -0.05204
N          2.76371        1.19549       -0.56508
H          2.05904       -2.53394        1.27261
H          3.05552        0.30524       -0.90594
H          3.44644        1.90559       -0.41984
