18
ModifiedRes-sp-5-11-12-13-311.log	Energy: -567369.8862662
C          0.98076        1.89315       -1.01596
O          1.38336        2.37512        0.04866
N          0.55844        0.60072       -1.12669
H          0.35500        0.23682       -2.05300
C          0.41145       -0.28543        0.04059
H          0.11563        0.33919        0.89600
C          1.76488       -0.95192        0.35991
O          1.95683       -2.12238        0.02406
H         -0.37179       -1.98236       -1.06892
H         -0.69240       -2.00822        0.67823
C         -0.66276       -1.37339       -0.20914
S         -2.33142       -0.67537       -0.57902
C         -2.50513        0.42987        0.70390
N         -2.61815        1.16881        1.62373
N          2.66821       -0.16863        1.00567
H          0.95955        2.46332       -1.95795
H          2.45043        0.81453        1.15052
H          3.57019       -0.55932        1.24285
