%RWF=/scratch/bdw2292/Gau-ModifiedRes/,100GB
%Nosave
%Chk=ModifiedRes-sp-3-5-11-12-324.chk
%Mem=20GB
%Nproc=6
#P MP2/6-311++G** SP SCF=(qc,maxcycle=800) Guess=Indo MaxDisk=100GB Pop=NBORead

ModifiedRes Rotatable Bond SP Calculation on g2-node38.bme.utexas.edu

0 1
 C    1.932551   -1.853033    0.425450
 O    2.664860   -1.778575   -0.567676
 N    0.956116   -0.937728    0.691049
 H    0.524710   -0.955213    1.611157
 C    0.623206    0.163694   -0.230535
 H    0.790851   -0.214476   -1.249721
 C    1.560971    1.362086    0.030159
 O    1.135006    2.352521    0.627605
 H   -0.942116    1.320712    0.736892
 H   -1.169464    1.071823   -1.014078
 C   -0.855092    0.598701   -0.081349
 S   -2.014532   -0.803821    0.247703
 C   -3.497021    0.021016    0.123640
 N   -4.521307    0.605511    0.002643
 N    2.830714    1.226381   -0.435398
 H    2.031744   -2.647648    1.181583
 H    3.117515    0.343611   -0.851426
 H    3.480285    1.988390   -0.294661

