18
ModifiedRes-sp-11-5-7-15-106.log	Energy: -567365.5818280
C          1.97919       -1.90309        0.25060
O          2.54554       -1.90530       -0.84131
N          1.04618       -0.97143        0.60634
H          0.70587       -0.99484        1.56387
C          0.62621        0.15112       -0.25589
H          0.69588       -0.21504       -1.28970
C          1.57012        1.37111       -0.09993
O          1.53080        2.24422       -0.96607
H         -0.88271        0.95101        1.09636
H         -1.09826        1.39241       -0.61175
C         -0.81061        0.58577        0.06917
S         -1.99428       -0.81490       -0.15454
C         -3.45612        0.02990        0.04892
N         -4.48735        0.59695        0.18835
N          2.39995        1.44561        0.97818
H          2.18735       -2.65477        1.02896
H          2.52161        0.68521        1.63398
H          3.00373        2.25624        1.02257
