%RWF=/scratch/bdw2292/Gau-ModifiedRes/,100GB
%Nosave
%Chk=ModifiedRes-sp-11-5-7-15-144.chk
%Mem=20GB
%Nproc=6
#P MP2/6-311++G** SP SCF=(qc,maxcycle=800) Guess=Indo MaxDisk=100GB Pop=NBORead

ModifiedRes Rotatable Bond SP Calculation on g2-node38.bme.utexas.edu

0 1
 C    1.942214   -1.889230    0.261047
 O    2.565167   -1.891224   -0.800653
 N    1.029707   -0.925272    0.571388
 H    0.725446   -0.874390    1.539791
 C    0.574629    0.138816   -0.348685
 H    0.597298   -0.293526   -1.358293
 C    1.525039    1.366262   -0.322090
 O    1.077443    2.450076   -0.702158
 H   -0.871013    1.022472    1.021880
 H   -1.172129    1.351674   -0.698186
 C   -0.849838    0.591330    0.018720
 S   -2.042505   -0.817611   -0.053163
 C   -3.494549    0.040782    0.167951
 N   -4.498351    0.658640    0.294351
 N    2.805544    1.216921    0.112214
 H    2.101780   -2.642024    1.049064
 H    3.253831    0.309771    0.084349
 H    3.379203    2.050375    0.116735

