%RWF=/scratch/bdw2292/Gau-ModifiedRes/,100GB
%Nosave
%Chk=ModifiedRes-sp-5-11-12-13-281.chk
%Mem=20GB
%Nproc=6
#P MP2/6-311++G** SP SCF=(qc,maxcycle=800) Guess=Indo MaxDisk=100GB Pop=NBORead

ModifiedRes Rotatable Bond SP Calculation on g2-node38.bme.utexas.edu

0 1
 C    1.313505    1.939945   -0.925486
 O    1.693414    2.333669    0.182913
 N    0.753862    0.711038   -1.119295
 H    0.564616    0.411939   -2.071475
 C    0.440264   -0.200962   -0.006148
 H    0.168386    0.416880    0.862857
 C    1.689788   -1.033497    0.348433
 O    1.768004   -2.202821   -0.033406
 H   -0.478714   -1.751426   -1.233088
 H   -0.890067   -1.810700    0.488241
 C   -0.733047   -1.143559   -0.361285
 S   -2.258456   -0.193607   -0.769956
 C   -2.774104    0.154400    0.813521
 N   -3.091455    0.416175    1.925007
 N    2.638813   -0.388766    1.076542
 H    1.421854    2.542010   -1.841291
 H    2.527294    0.604654    1.263919
 H    3.475721   -0.892861    1.336740

