18
ModifiedRes-opt-11-5-7-15-333.log	Energy: -567275.7647209
C          1.91552       -1.80859        0.47471
O          2.53892       -1.84882       -0.54753
N          0.97269       -0.88632        0.75777
H          0.59603       -0.86069        1.67988
C          0.60511        0.16551       -0.17609
H          0.71642       -0.24529       -1.17020
C          1.54427        1.37417       -0.02953
O          1.19146        2.37733        0.52377
H         -0.96661        1.02791        1.03194
H         -1.09266        1.37251       -0.67749
C         -0.83466        0.61391        0.04448
S         -1.95643       -0.82130       -0.17762
C         -3.44853        0.00206       -0.10213
N         -4.45599        0.52716       -0.05322
N          2.76281        1.19598       -0.56782
H          2.05961       -2.53318        1.27326
H          3.05428        0.30588       -0.90938
H          3.44604        1.90543       -0.42176
