18
ModifiedRes-opt-5-11-12-13-101.log	Energy: -567277.2916655
C         -0.82235        2.10847        0.15112
O         -1.58811        2.28102       -0.75594
N         -0.31067        0.91207        0.49808
H          0.26533        0.86288        1.30921
C         -0.57138       -0.29531       -0.26396
H         -0.70695        0.00618       -1.29367
C         -1.86076       -0.97937        0.22053
O         -1.83032       -2.00914        0.83577
H          0.76839       -1.58969        0.85394
H          0.34307       -2.17697       -0.72226
C          0.58616       -1.28422       -0.16476
S          2.15191       -0.69463       -0.90826
C          2.75651        0.25157        0.37711
N          3.15963        0.88125        1.23480
N         -2.99025       -0.33347       -0.11335
H         -0.47467        2.92293        0.78225
H         -2.96681        0.56794       -0.53918
H         -3.85154       -0.67996        0.24616
