18
ModifiedRes-sp-5-11-12-13-011.log	Energy: -567364.0209860
C         -0.52018        2.02909        0.57984
O         -1.13342        2.40216       -0.42869
N         -0.23964        0.71481        0.81888
H          0.13907        0.45892        1.72572
C         -0.49099       -0.33463       -0.18602
H         -0.34010        0.11599       -1.17837
C         -1.95315       -0.81204       -0.06889
O         -2.19477       -1.88313        0.49232
H          0.30567       -1.96717        0.98123
H          0.16993       -2.27000       -0.77660
C          0.46460       -1.54472       -0.01511
S          2.28297       -1.21498       -0.14186
C          2.49557        0.47618       -0.15442
N          2.62746        1.65477       -0.18109
N         -2.88878        0.01165       -0.60925
H         -0.18399        2.72205        1.36641
H         -2.59845        0.93148       -0.93346
H         -3.86242       -0.25576       -0.55638
