18
ModifiedRes-opt-3-5-11-12-002.log	Energy: -567275.7646180
C          1.91562       -1.80837        0.47516
O          2.53962       -1.84834       -0.54672
N          0.97204       -0.88660        0.75751
H          0.59556       -0.86044        1.67969
C          0.60505        0.16528       -0.17655
H          0.71668       -0.24548       -1.17062
C          1.54435        1.37374       -0.02921
O          1.19274        2.37541        0.52753
H         -0.96668        1.02904        1.03042
H         -1.09249        1.37188       -0.67946
C         -0.83469        0.61402        0.04339
S         -1.95658       -0.82129       -0.17740
C         -3.44853        0.00237       -0.10225
N         -4.45591        0.52764       -0.05352
N          2.76160        1.19717       -0.57122
H          2.05965       -2.53278        1.27387
H          3.05332        0.30676       -0.91183
H          3.44561        1.90539       -0.42266
