18
ModifiedRes-sp-11-5-7-15-144.log	Energy: -567366.9746291
C          1.98780       -1.87790        0.27045
O          2.66774       -1.77600       -0.75062
N          1.03719       -0.96186        0.61014
H          0.67932       -1.00097        1.56060
C          0.60808        0.16933       -0.23967
H          0.69611       -0.17322       -1.27969
C          1.52636        1.40750       -0.05441
O          1.07474        2.51160       -0.36495
H         -0.93079        0.90332        1.11765
H         -1.14512        1.37488       -0.58216
C         -0.84463        0.56137        0.08406
S         -1.99798       -0.85820       -0.17547
C         -3.47980       -0.04971        0.03594
N         -4.50333        0.53585        0.15786
N          2.78438        1.24513        0.43716
H          2.12179       -2.69313        0.99886
H          3.25482        0.35242        0.35709
H          3.33709        2.08569        0.54544
