18
ModifiedRes-opt-11-5-7-15-144.log	Energy: -567275.7647310
C          1.91549       -1.80869        0.47463
O          2.53914       -1.84886       -0.54746
N          0.97249       -0.88654        0.75757
H          0.59599       -0.86080        1.67975
C          0.60519        0.16549       -0.17611
H          0.71663       -0.24513       -1.17029
C          1.54421        1.37434       -0.02951
O          1.19091        2.37786        0.52282
H         -0.96679        1.02808        1.03150
H         -1.09252        1.37232       -0.67804
C         -0.83466        0.61389        0.04415
S         -1.95641       -0.82135       -0.17788
C         -3.44850        0.00198       -0.10188
N         -4.45597        0.52705       -0.05262
N          2.76320        1.19589       -0.56660
H          2.05952       -2.53322        1.27323
H          3.05488        0.30580       -0.90797
H          3.44612        1.90573       -0.42102
