18
ModifiedRes-sp-11-5-7-15-125.log	Energy: -567366.3269107
C          1.99463       -1.88648        0.23437
O          2.58958       -1.84536       -0.84132
N          1.05020       -0.96982        0.59658
H          0.70593       -1.00927        1.55213
C          0.61619        0.16114       -0.24823
H          0.69200       -0.18717       -1.28734
C          1.53891        1.39721       -0.07456
O          1.24439        2.41884       -0.69649
H         -0.90293        0.91521        1.11959
H         -1.12762        1.38081       -0.58115
C         -0.82763        0.56761        0.08666
S         -1.99321       -0.84497       -0.15637
C         -3.46571       -0.02252        0.06382
N         -4.48234        0.57337        0.19163
N          2.62555        1.33353        0.74330
H          2.18998       -2.66096        0.99312
H          2.98128        0.46027        1.10758
H          3.18887        2.17146        0.80735
