18
ModifiedRes-sp-5-11-12-13-341.log	Energy: -567367.1833683
C         -0.63824        1.93252        0.89865
O         -1.15513        2.40688       -0.12030
N         -0.33763        0.60699        1.02060
H         -0.05537        0.25610        1.93092
C         -0.43363       -0.32574       -0.11767
H         -0.18798        0.23881       -1.02931
C         -1.87794       -0.85263       -0.23502
O         -2.14201       -1.98640        0.17154
H          0.29723       -2.05947        0.95676
H          0.38354       -2.16908       -0.82057
C          0.54554       -1.51752        0.04025
S          2.33278       -1.05801        0.17320
C          2.40800        0.51272       -0.48183
N          2.42871        1.61885       -0.90662
N         -2.77347        0.00274       -0.79384
H         -0.41479        2.53681        1.79150
H         -2.48102        0.95888       -0.98292
H         -3.73469       -0.29396       -0.89478
