%RWF=/scratch/bdw2292/Gau-ModifiedRes/,100GB
%Nosave
%Chk=ModifiedRes-opt-5-11-12-13-191.chk
%Mem=20GB
%Nproc=6
#P opt=(,maxcycle=400) HF/6-31G* MaxDisk=100GB

ModifiedRes Rotatable Bond Optimization on g2-node38.bme.utexas.edu

0 1
 C    1.946099   -1.835403    0.493840
 O    2.650312   -1.786562   -0.521133
 N    0.957124   -0.930504    0.749746
 H    0.565940   -0.906671    1.687222
 C    0.601212    0.146147   -0.191286
 H    0.719061   -0.268728   -1.202824
 C    1.561492    1.341497   -0.016299
 O    1.180367    2.340502    0.596114
 H   -0.962899    1.069540    1.004138
 H   -1.108580    1.329489   -0.750335
 C   -0.857580    0.600059    0.022607
 S   -2.036529   -0.816913   -0.105569
 C   -3.504840    0.041584   -0.143724
 N   -4.542211    0.614817   -0.172372
 N    2.793316    1.196014   -0.570904
 H    2.081573   -2.597577    1.277196
 H    3.056987    0.296630   -0.965539
 H    3.454257    1.956380   -0.485278

5 11 12 13 F
3 5 11 12 F
7 5 11 12 F
11 5 7 15 F
3 5 7 15 F
3 5 7 8 F
11 5 7 8 F

