%RWF=/scratch/bdw2292/Gau-ModifiedRes/,100GB
%Nosave
%Chk=ModifiedRes-sp-11-5-7-15-238.chk
%Mem=20GB
%Nproc=6
#P MP2/6-311++G** SP SCF=(qc,maxcycle=800) Guess=Indo MaxDisk=100GB Pop=NBORead

ModifiedRes Rotatable Bond SP Calculation on g2-node38.bme.utexas.edu

0 1
 C    1.912618   -1.936710    0.700821
 O    2.571671   -1.998516   -0.341063
 N    0.963175   -0.980250    0.911082
 H    0.521253   -0.928201    1.824479
 C    0.677587    0.072494   -0.077595
 H    0.851143   -0.375478   -1.067003
 C    1.648513    1.252483    0.118915
 O    1.588145    1.900174    1.164428
 H   -0.955294    1.017483    1.006715
 H   -0.950169    1.329140   -0.741809
 C   -0.774288    0.571461    0.024869
 S   -1.971322   -0.809238   -0.244841
 C   -3.414314    0.090329   -0.288898
 N   -4.410881    0.731886   -0.284037
 N    2.518687    1.499603   -0.895391
 H    2.044816   -2.643721    1.534857
 H    2.662169    0.801859   -1.615711
 H    3.164687    2.268874   -0.777411

