%RWF=/scratch/bdw2292/Gau-ModifiedRes/,100GB
%Nosave
%Chk=ModifiedRes-sp-5-11-12-13-131.chk
%Mem=20GB
%Nproc=6
#P MP2/6-311++G** SP SCF=(qc,maxcycle=800) Guess=Indo MaxDisk=100GB Pop=NBORead

ModifiedRes Rotatable Bond SP Calculation on g2-node38.bme.utexas.edu

0 1
 C   -1.126080    2.244982    0.086986
 O   -1.939391    2.264555   -0.843872
 N   -0.490959    1.103685    0.478557
 H    0.086117    1.136261    1.314860
 C   -0.612951   -0.170562   -0.251764
 H   -0.766783    0.073627   -1.313141
 C   -1.842418   -0.959088    0.246135
 O   -1.682085   -1.976231    0.922705
 H    0.829662   -1.242033    0.955765
 H    0.523925   -1.969164   -0.627428
 C    0.662989   -1.022651   -0.100609
 S    2.103984   -0.177517   -0.885887
 C    3.231956   -0.317618    0.381132
 N    3.982196   -0.388320    1.296147
 N   -3.051154   -0.457468   -0.122125
 H   -0.876263    3.137335    0.681870
 H   -3.091592    0.411343   -0.649686
 H   -3.886606   -0.941332    0.178663

