18
ModifiedRes-opt-11-5-7-15-314.log	Energy: -567275.7645798
C          1.91435       -1.80921        0.47481
O          2.53724       -1.85017       -0.54768
N          0.97281       -0.88570        0.75828
H          0.59661       -0.85923        1.68055
C          0.60553        0.16557       -0.17621
H          0.71762       -0.24565       -1.17001
C          1.54451        1.37421       -0.02934
O          1.19152        2.37729        0.52385
H         -0.96662        1.02957        1.02998
H         -1.09207        1.37177       -0.68004
C         -0.83436        0.61416        0.04313
S         -1.95616       -0.82117       -0.17745
C         -3.44825        0.00220       -0.10190
N         -4.45563        0.52753       -0.05293
N          2.76321        1.19613       -0.56771
H          2.05831       -2.53355        1.27364
H          3.05484        0.30612       -0.90925
H          3.44646        1.90550       -0.42134
