18
ModifiedRes-sp-3-5-11-12-343.log	Energy: -567364.2922119
C         -1.99488       -1.83810       -0.29975
O         -2.82023       -1.67054        0.60531
N         -0.95094       -0.98566       -0.51390
H         -0.43451       -1.08551       -1.38304
C         -0.65962        0.15499        0.37579
H         -0.95023       -0.15400        1.39071
C         -1.51072        1.37138       -0.05502
O         -0.98333        2.30641       -0.66100
H          0.99906        1.42765       -0.23511
H          1.15175        0.71884        1.40152
C          0.85386        0.52493        0.36838
S          2.00121       -0.77041       -0.28436
C          3.49392       -0.05040        0.09843
N          4.52425        0.45138        0.40208
N         -2.82704        1.31508        0.27916
H         -2.05642       -2.67258       -1.01593
H         -3.19492        0.47319        0.71539
H         -3.42472        2.08967        0.02348
