18
ModifiedRes-sp-3-5-11-12-324.log	Energy: -567367.8202371
C          1.94634       -1.84442        0.37754
O          2.71390       -1.74502       -0.58636
N          0.95024       -0.94452        0.62192
H          0.48540       -0.98242        1.52497
C          0.63886        0.16875       -0.29292
H          0.84837       -0.19012       -1.31134
C          1.55243        1.37272        0.02229
O          1.09327        2.34810        0.61992
H         -0.97439        1.29190        0.63488
H         -1.13406        1.07044       -1.12722
C         -0.84887        0.58495       -0.19147
S         -2.00337       -0.83559        0.07095
C         -3.48971       -0.02504       -0.09429
N         -4.51552        0.55019       -0.24346
N          2.83998        1.25888       -0.39803
H          2.02674       -2.65068        1.12350
H          3.15214        0.38653       -0.81776
H          3.47505        2.02544       -0.22062
