%RWF=/scratch/bdw2292/Gau-ModifiedRes/,100GB
%Nosave
%Chk=ModifiedRes-opt-3-5-11-12-116.chk
%Mem=20GB
%Nproc=6
#P opt=(,maxcycle=400) HF/6-31G* MaxDisk=100GB

ModifiedRes Rotatable Bond Optimization on g2-node38.bme.utexas.edu

0 1
 C    1.866624   -1.794642    0.520180
 O    2.574231   -1.818094   -0.493938
 N    0.930449   -0.829206    0.753459
 H    0.531989   -0.777099    1.686706
 C    0.637217    0.261282   -0.199596
 H    0.729837   -0.144577   -1.219194
 C    1.729081    1.346772   -0.034576
 O    1.502842    2.388303    0.575669
 H   -1.345228    0.625428   -0.966003
 H   -1.307571    0.093440    0.739807
 C   -0.832369    0.731733   -0.007706
 S   -1.191562    2.454678    0.573583
 C   -2.861517    2.302179    0.870758
 N   -4.024564    2.210383    1.082570
 N    2.932124    1.061435   -0.598858
 H    1.955755   -2.542066    1.324289
 H    3.091260    0.137549   -0.992882
 H    3.678202    1.739203   -0.518166

3 5 11 12 F
7 5 11 12 F
11 5 7 15 F
3 5 7 15 F
3 5 7 8 F
11 5 7 8 F
5 11 12 13 F

