18
ModifiedRes-sp-11-5-7-15-182.log	Energy: -567369.8562493
C          1.97589       -1.83671        0.42785
O          2.67770       -1.77216       -0.58675
N          1.01242       -0.91518        0.71473
H          0.63259       -0.91243        1.65726
C          0.61093        0.16939       -0.20237
H          0.72613       -0.22159       -1.22345
C          1.54333        1.39226       -0.03774
O          1.06309        2.47844        0.29103
H         -0.97112        0.97335        1.06090
H         -1.12772        1.36437       -0.66356
C         -0.85315        0.58264        0.04797
S         -2.00072       -0.84605       -0.18789
C         -3.49142       -0.03513       -0.06816
N         -4.54416        0.50417        0.01153
N          2.86556        1.18432       -0.27401
H          2.09945       -2.62187        1.19015
H          3.17728        0.28966       -0.64320
H          3.49840        1.96717       -0.17705
