%RWF=/scratch/bdw2292/Gau-ModifiedRes/,100GB
%Nosave
%Chk=ModifiedRes-sp-3-5-11-12-059.chk
%Mem=20GB
%Nproc=6
#P MP2/6-311++G** SP SCF=(qc,maxcycle=800) Guess=Indo MaxDisk=100GB Pop=NBORead

ModifiedRes Rotatable Bond SP Calculation on g2-node38.bme.utexas.edu

0 1
 C    1.739438    1.956952   -0.393410
 O    2.803099    1.776440    0.209884
 N    0.683273    1.099878   -0.293078
 H   -0.065485    1.201585   -0.973095
 C    0.647577   -0.045856    0.640950
 H    1.221815    0.239201    1.535660
 C    1.322808   -1.264815   -0.024714
 O    0.659794   -2.278186   -0.244727
 H   -0.761342   -1.200001    1.805753
 H   -1.206587    0.506865    1.640664
 C   -0.786868   -0.353831    1.117118
 S   -1.928895   -0.755939   -0.287004
 C   -3.023288    0.544104   -0.174761
 N   -3.793250    1.442738   -0.116266
 N    2.644822   -1.138893   -0.314163
 H    1.579458    2.802145   -1.081117
 H    3.140974   -0.294623   -0.039425
 H    3.121695   -1.918392   -0.747054

