%RWF=/scratch/bdw2292/Gau-ModifiedRes/,100GB
%Nosave
%Chk=ModifiedRes-sp-5-11-12-13-221.chk
%Mem=20GB
%Nproc=6
#P MP2/6-311++G** SP SCF=(qc,maxcycle=800) Guess=Indo MaxDisk=100GB Pop=NBORead

ModifiedRes Rotatable Bond SP Calculation on g2-node38.bme.utexas.edu

0 1
 C    1.947761   -1.846567    0.447227
 O    2.491493   -1.822412   -0.662574
 N    1.042101   -0.906331    0.843482
 H    0.776192   -0.880610    1.823696
 C    0.564522    0.164261   -0.048083
 H    0.548113   -0.246253   -1.068531
 C    1.538964    1.359932   -0.011299
 O    1.230830    2.377773    0.610890
 H   -0.851549    1.034355    1.359203
 H   -1.177629    1.393285   -0.351852
 C   -0.854073    0.620422    0.348297
 S   -2.051498   -0.786081    0.267243
 C   -3.390154    0.005620   -0.424927
 N   -4.320933    0.582172   -0.879105
 N    2.703339    1.189976   -0.691245
 H    2.173728   -2.612367    1.205844
 H    2.906610    0.287217   -1.113325
 H    3.371547    1.948777   -0.699402

