18
ModifiedRes-opt-5-11-12-13-221.log	Energy: -567275.7647197
C          1.91531       -1.80884        0.47430
O          2.53877       -1.84896       -0.54791
N          0.97258       -0.88652        0.75749
H          0.59618       -0.86087        1.67971
C          0.60517        0.16564       -0.17608
H          0.71656       -0.24488       -1.17031
C          1.54422        1.37446       -0.02956
O          1.19049        2.37851        0.52155
H         -0.96666        1.02815        1.03179
H         -1.09265        1.37245       -0.67770
C         -0.83464        0.61398        0.04439
S         -1.95629       -0.82134       -0.17747
C         -3.44840        0.00197       -0.10193
N         -4.45599        0.52682       -0.05299
N          2.76372        1.19536       -0.56526
H          2.05925       -2.53361        1.27270
H          3.05530        0.30535       -0.90691
H          3.44646        1.90548       -0.42027
