%RWF=/scratch/bdw2292/Gau-ModifiedRes/,100GB
%Nosave
%Chk=ModifiedRes-sp-3-5-11-12-097.chk
%Mem=20GB
%Nproc=6
#P MP2/6-311++G** SP SCF=(qc,maxcycle=800) Guess=Indo MaxDisk=100GB Pop=NBORead

ModifiedRes Rotatable Bond SP Calculation on g2-node38.bme.utexas.edu

0 1
 C    1.946421    1.982707   -0.200075
 O    3.007725    1.623941    0.322600
 N    0.803694    1.241592   -0.133301
 H    0.037357    1.497876   -0.751094
 C    0.664692    0.005399    0.663643
 H    1.301378    0.094807    1.557914
 C    1.180533   -1.186000   -0.183477
 O    0.437917   -2.102406   -0.524739
 H   -0.731058   -0.552930    2.193829
 H   -1.260764    0.838413    1.200171
 C   -0.790938   -0.146856    1.182014
 S   -1.983403   -1.216760    0.245193
 C   -3.107248   -0.029695   -0.237123
 N   -3.839640    0.830992   -0.594537
 N    2.502129   -1.153624   -0.502097
 H    1.853765    2.910795   -0.785802
 H    3.092257   -0.408215   -0.140606
 H    2.884547   -1.911220   -1.052089

