18
ModifiedRes-sp-5-11-12-13-131.log	Energy: -567369.4339668
C         -1.42731        1.99331        0.58312
O         -2.27861        2.09998       -0.30698
N         -0.63310        0.89182        0.70645
H         -0.02690        0.82367        1.51969
C         -0.62372       -0.20230       -0.28086
H         -0.85671        0.23898       -1.26106
C         -1.71705       -1.23810        0.05532
O         -1.39594       -2.34454        0.49203
H          0.99920       -1.30029        0.63994
H          0.71661       -1.70844       -1.05778
C          0.75692       -0.88582       -0.34055
S          2.03919        0.29462       -0.94860
C          3.23327        0.04248        0.23794
N          4.02794       -0.11885        1.10257
N         -2.99606       -0.83838       -0.17414
H         -1.26717        2.76407        1.35310
H         -3.17240        0.10908       -0.49971
H         -3.74743       -1.48397        0.02893
