%RWF=/scratch/bdw2292/Gau-ModifiedRes/,100GB
%Nosave
%Chk=ModifiedRes-sp-11-5-7-15-068.chk
%Mem=20GB
%Nproc=6
#P MP2/6-311++G** SP SCF=(qc,maxcycle=800) Guess=Indo MaxDisk=100GB Pop=NBORead

ModifiedRes Rotatable Bond SP Calculation on g2-node38.bme.utexas.edu

0 1
 C    1.978553   -2.063490   -0.207512
 O    2.337681   -2.128859   -1.382032
 N    1.159812   -1.084043    0.277706
 H    0.978307   -1.091848    1.277185
 C    0.664244    0.058227   -0.513784
 H    0.548926   -0.303755   -1.545207
 C    1.696681    1.211066   -0.507034
 O    2.102090    1.671381   -1.571409
 H   -0.586429    0.926028    1.048768
 H   -1.035515    1.384771   -0.604781
 C   -0.684342    0.562554    0.024374
 S   -1.948837   -0.783690   -0.016869
 C   -3.313806    0.138308    0.402888
 N   -4.240738    0.795970    0.736938
 N    2.111696    1.673331    0.706454
 H    2.290873   -2.802121    0.548171
 H    1.800478    1.281398    1.586483
 H    2.791925    2.421800    0.688847

