%RWF=/scratch/bdw2292/Gau-ModifiedRes/,100GB
%Nosave
%Chk=ModifiedRes-sp-11-5-7-15-182.chk
%Mem=20GB
%Nproc=6
#P MP2/6-311++G** SP SCF=(qc,maxcycle=800) Guess=Indo MaxDisk=100GB Pop=NBORead

ModifiedRes Rotatable Bond SP Calculation on g2-node38.bme.utexas.edu

0 1
 C    1.945573   -1.836974    0.436951
 O    2.632726   -1.807935   -0.589245
 N    0.996924   -0.896906    0.712905
 H    0.631369   -0.864354    1.660509
 C    0.593899    0.167170   -0.227239
 H    0.689337   -0.252485   -1.238933
 C    1.542338    1.383099   -0.109563
 O    1.079320    2.483252    0.196679
 H   -0.959852    1.023202    1.036928
 H   -1.137962    1.369429   -0.695008
 C   -0.861520    0.604006    0.033329
 S   -2.028470   -0.817075   -0.146798
 C   -3.508010    0.014053   -0.027150
 N   -4.553310    0.567518    0.053378
 N    2.858455    1.153503   -0.359556
 H    2.071750   -2.602702    1.218348
 H    3.154525    0.245662   -0.708907
 H    3.501428    1.931267   -0.293173

