18
ModifiedRes-sp-3-5-11-12-173.log	Energy: -567369.3765597
C         -2.75360       -1.14723       -0.48094
O         -2.83836       -1.33948        0.73732
N         -1.67365       -0.54814       -1.06044
H         -1.76691       -0.21053       -2.01368
C         -0.48754       -0.15652       -0.28104
H         -0.36872       -0.89701        0.52383
C         -0.70279        1.23581        0.34564
O         -0.23129        2.22939       -0.20816
H          0.97726       -1.19343       -1.52717
H          0.55601        0.43370       -2.08543
C          0.75282       -0.17659       -1.20068
S          2.25655        0.50879       -0.37706
C          2.69180       -0.85921        0.53255
N          2.99344       -1.83699        1.12953
N         -1.44456        1.25668        1.48385
H         -3.55656       -1.41833       -1.18425
H         -1.90426        0.40180        1.78748
H         -1.61519        2.14531        1.93521
