18
ModifiedRes-sp-3-5-11-12-002.log	Energy: -567361.9738587
C         -2.07421       -1.81646       -0.25675
O         -2.94154       -1.57971        0.59201
N         -0.97420       -1.02702       -0.43015
H         -0.41984       -1.18609       -1.26521
C         -0.67672        0.12221        0.44900
H         -1.04396       -0.14627        1.45074
C         -1.43694        1.36659       -0.06486
O         -0.82659        2.25635       -0.66074
H          1.03079        1.45713        0.21737
H          1.15562        0.29001        1.57353
C          0.85566        0.42222        0.53091
S          1.98166       -0.64113       -0.47728
C          3.48636       -0.09989        0.10183
N          4.52496        0.26605        0.54117
N         -2.77202        1.38547        0.18914
H         -2.14018       -2.66626       -0.95438
H         -3.20703        0.57620        0.62535
H         -3.31305        2.18075       -0.12289
