18
ModifiedRes-sp-3-5-11-12-097.log	Energy: -567360.4271759
C         -2.30939       -1.70143       -0.29935
O         -3.28509       -1.18256        0.25478
N         -1.05148       -1.18139       -0.21721
H         -0.34813       -1.54219       -0.85732
C         -0.68663       -0.02848        0.63150
H         -1.32275       -0.04344        1.53051
C         -0.98548        1.27409       -0.15408
O         -0.09242        2.05710       -0.46568
H          0.79749        0.19877        2.16351
H          1.06111       -1.21754        1.10127
C          0.77621       -0.16417        1.13391
S          2.13522        0.71650        0.22737
C          3.02361       -0.62941       -0.32408
N          3.58657       -1.59010       -0.73035
N         -2.29351        1.49428       -0.45369
H         -2.38942       -2.60294       -0.92695
H         -3.00564        0.85099       -0.11664
H         -2.53713        2.33286       -0.96371
