%RWF=/scratch/bdw2292/Gau-ModifiedRes/,100GB
%Nosave
%Chk=ModifiedRes-sp-5-11-12-13-161.chk
%Mem=20GB
%Nproc=6
#P MP2/6-311++G** SP SCF=(qc,maxcycle=800) Guess=Indo MaxDisk=100GB Pop=NBORead

ModifiedRes Rotatable Bond SP Calculation on g2-node38.bme.utexas.edu

0 1
 C    1.853178   -1.829374    0.524834
 O    2.624523   -1.816176   -0.441105
 N    0.888607   -0.882302    0.707921
 H    0.416060   -0.846588    1.606895
 C    0.624611    0.184209   -0.273398
 H    0.828831   -0.233953   -1.269985
 C    1.575768    1.375261   -0.032008
 O    1.146659    2.399165    0.502116
 H   -1.054577    1.071536    0.786572
 H   -1.005203    1.419593   -0.956898
 C   -0.842979    0.650526   -0.199098
 S   -2.003910   -0.748303   -0.529749
 C   -3.422576   -0.100714    0.151546
 N   -4.407477    0.377337    0.606418
 N    2.859466    1.195208   -0.441272
 H    1.904929   -2.589524    1.319934
 H    3.145750    0.288935   -0.803499
 H    3.518648    1.950037   -0.306118

