%RWF=/scratch/bdw2292/Gau-ModifiedRes/,100GB
%Nosave
%Chk=ModifiedRes-opt-3-5-11-12-230.chk
%Mem=20GB
%Nproc=6
#P opt=(,maxcycle=400) HF/6-31G* MaxDisk=100GB

ModifiedRes Rotatable Bond Optimization on g2-node38.bme.utexas.edu

0 1
 C    1.932249   -1.825594    0.495183
 O    2.633956   -1.782157   -0.522146
 N    0.948847   -0.915966    0.754386
 H    0.557947   -0.890644    1.691580
 C    0.597352    0.163740   -0.184035
 H    0.711805   -0.246862   -1.197866
 C    1.580471    1.343314   -0.018629
 O    1.219492    2.349306    0.594688
 H   -1.397153   -0.058358    0.718922
 H   -0.881351    1.613826    0.470112
 C   -0.869303    0.608563    0.035599
 S   -1.763379    0.651028   -1.575040
 C   -3.179780    1.452375   -1.081574
 N   -4.176611    2.009036   -0.762267
 N    2.806862    1.179151   -0.580106
 H    2.065733   -2.587789    1.278927
 H    3.056480    0.274956   -0.973186
 H    3.479084    1.930375   -0.500047

3 5 11 12 F
7 5 11 12 F
11 5 7 15 F
3 5 7 15 F
3 5 7 8 F
11 5 7 8 F
5 11 12 13 F

