18
ModifiedRes-opt-5-11-12-13-131.log	Energy: -567277.2916096
C         -0.82214        2.10845        0.15143
O         -1.58728        2.28148       -0.75605
N         -0.31045        0.91191        0.49798
H          0.26370        0.86202        1.31039
C         -0.57152       -0.29526       -0.26422
H         -0.70729        0.00650       -1.29381
C         -1.86078       -0.97937        0.22053
O         -1.83016       -2.00896        0.83605
H          0.76815       -1.59039        0.85298
H          0.34281       -2.17669       -0.72359
C          0.58596       -1.28429       -0.16554
S          2.15176       -0.69421       -0.90853
C          2.75609        0.25118        0.37760
N          3.15967        0.88037        1.23544
N         -2.99037       -0.33358       -0.11332
H         -0.47498        2.92257        0.78333
H         -2.96704        0.56791       -0.53900
H         -3.85159       -0.67982        0.24664
