18
ModifiedRes-sp-11-5-7-15-333.log	Energy: -567361.0952093
C          2.01557       -1.87741        0.33437
O          2.47609       -1.97972       -0.80540
N          1.06807       -0.95644        0.68375
H          0.71721       -0.98156        1.63659
C          0.65683        0.15322       -0.20063
H          0.74301       -0.21003       -1.23458
C          1.63228        1.35523       -0.02132
O          2.80233        1.13830        0.28451
H         -0.90571        0.92222        1.11707
H         -1.10778        1.35945       -0.58739
C         -0.80375        0.56227        0.09011
S         -1.93975       -0.87299       -0.17096
C         -3.42283       -0.05968        0.00567
N         -4.46330        0.49396        0.12614
N          1.17369        2.62590       -0.20321
H          2.31288       -2.54965        1.15554
H          0.27771        2.85013       -0.61469
H          1.85341        3.36271       -0.06597
