%RWF=/scratch/bdw2292/Gau-ModifiedRes/,100GB
%Nosave
%Chk=ModifiedRes-opt-11-5-7-15-163.chk
%Mem=20GB
%Nproc=6
#P opt=(,maxcycle=400) HF/6-31G* MaxDisk=100GB

ModifiedRes Rotatable Bond Optimization on g2-node38.bme.utexas.edu

0 1
 C    1.909636   -1.900694    0.542566
 O    2.696791   -1.838223   -0.405425
 N    0.939469   -0.966170    0.754483
 H    0.525796   -0.941525    1.682477
 C    0.606140    0.136890   -0.173753
 H    0.737997   -0.264335   -1.187946
 C    1.569878    1.337675    0.014320
 O    1.103667    2.478114   -0.027107
 H   -0.959108    1.048530    1.024875
 H   -1.092535    1.336813   -0.724901
 C   -0.852153    0.592592    0.038077
 S   -2.038834   -0.815322   -0.117536
 C   -3.503231    0.050143   -0.146646
 N   -4.538674    0.627162   -0.168861
 N    2.889755    1.082064    0.214520
 H    1.959285   -2.690743    1.308126
 H    3.272410    0.180421   -0.052419
 H    3.503410    1.876308    0.340748

11 5 7 15 F
3 5 7 15 F
3 5 7 8 F
11 5 7 8 F
3 5 11 12 F
7 5 11 12 F
5 11 12 13 F

