18
ModifiedRes-opt-11-5-7-15-276.log	Energy: -567275.7647297
C          1.91564       -1.80852        0.47452
O          2.53939       -1.84832       -0.54753
N          0.97249       -0.88658        0.75754
H          0.59593       -0.86095        1.67970
C          0.60510        0.16548       -0.17616
H          0.71658       -0.24512       -1.17033
C          1.54422        1.37417       -0.02951
O          1.19101        2.37764        0.52303
H         -0.96685        1.02822        1.03141
H         -1.09269        1.37223       -0.67817
C         -0.83476        0.61391        0.04411
S         -1.95649       -0.82137       -0.17764
C         -3.44856        0.00201       -0.10195
N         -4.45605        0.52701       -0.05290
N          2.76315        1.19569       -0.56668
H          2.05974       -2.53326        1.27290
H          3.05473        0.30562       -0.90819
H          3.44615        1.90542       -0.42093
