18
ModifiedRes-opt-3-5-11-12-154.log	Energy: -567276.3264869
C          2.48638       -1.40866        0.50245
O          2.56370       -1.67387       -0.66243
N          1.51147       -0.65450        1.05293
H          1.62120       -0.35810        1.99767
C          0.45089       -0.06091        0.25353
H          0.24710       -0.74904       -0.55406
C          0.92194        1.28740       -0.31156
O          0.62527        2.32168        0.22129
H         -1.02230       -0.79753        1.64441
H         -0.63383        0.91186        1.83736
C         -0.78923        0.11797        1.12105
S         -2.26193        0.64102        0.17603
C         -2.73027       -0.87725       -0.45276
N         -3.05270       -1.88040       -0.88116
N          1.69364        1.19616       -1.40652
H          3.20995       -1.77030        1.23057
H          2.03601        0.31534       -1.72349
H          2.11588        2.02886       -1.75270
