18
ModifiedRes-opt-5-11-12-13-071.log	Energy: -567277.2916454
C         -0.82253        2.10847        0.15140
O         -1.58788        2.28105       -0.75597
N         -0.31072        0.91207        0.49834
H          0.26458        0.86276        1.30997
C         -0.57130       -0.29531       -0.26385
H         -0.70659        0.00622       -1.29357
C         -1.86077       -0.97921        0.22051
O         -1.83041       -2.00846        0.83665
H          0.76832       -1.58923        0.85461
H          0.34292       -2.17735       -0.72116
C          0.58620       -1.28426       -0.16427
S          2.15183       -0.69512       -0.90816
C          2.75652        0.25170        0.37677
N          3.15992        0.88184        1.23399
N         -2.99024       -0.33387       -0.11455
H         -0.47535        2.92283        0.78295
H         -2.96677        0.56746       -0.54056
H         -3.85156       -0.68014        0.24511
