18
ModifiedRes-sp-11-5-7-15-068.log	Energy: -567362.1464088
C         -1.98149        1.87861        0.45527
O         -2.54694        2.01416       -0.62854
N         -1.04307        0.91749        0.70167
H         -0.68693        0.85740        1.65115
C         -0.64196       -0.12470       -0.26257
H         -0.72993        0.32458       -1.26185
C         -1.59979       -1.33743       -0.17978
O         -2.16572       -1.73652       -1.19447
H          0.90759       -1.03294        0.97550
H          1.07638       -1.32965       -0.76514
C          0.80370       -0.58384       -0.01374
S          1.97411        0.83872       -0.15335
C          3.43493       -0.02550       -0.06078
N          4.43720       -0.64765        0.04732
N         -1.76907       -1.91988        1.04111
H         -2.18941        2.53368        1.31656
H         -1.32528       -1.58015        1.88523
H         -2.40462       -2.70612        1.07502
