%RWF=/scratch/bdw2292/Gau-ModifiedRes/,100GB
%Nosave
%Chk=ModifiedRes-sp-3-5-11-12-192.chk
%Mem=20GB
%Nproc=6
#P MP2/6-311++G** SP SCF=(qc,maxcycle=800) Guess=Indo MaxDisk=100GB Pop=NBORead

ModifiedRes Rotatable Bond SP Calculation on g2-node38.bme.utexas.edu

0 1
 C    2.820785   -1.406796    0.295965
 O    3.241613   -1.006445   -0.795275
 N    1.586932   -1.073247    0.772429
 H    1.397289   -1.218375    1.759689
 C    0.654864   -0.246676   -0.010746
 H    0.835746   -0.485003   -1.069521
 C    0.948432    1.247751    0.220074
 O    0.338116    1.847007    1.105632
 H   -0.911962   -1.682731    0.391918
 H   -1.007305   -0.203830    1.379097
 C   -0.791907   -0.597514    0.381122
 S   -1.964258    0.160128   -0.820408
 C   -3.425864   -0.239610   -0.051340
 N   -4.457971   -0.507764    0.466703
 N    1.905591    1.789061   -0.578104
 H    3.418335   -2.038072    0.972101
 H    2.484021    1.171881   -1.141944
 H    2.130259    2.767784   -0.458644

