18
ModifiedRes-opt-3-5-11-12-097.log	Energy: -567277.1181629
C          1.73648        1.95328       -0.36600
O          2.75068        1.82774        0.26248
N          0.68374        1.11837       -0.28982
H         -0.05830        1.22787       -0.94552
C          0.65529       -0.02331        0.60316
H          1.23533        0.24922        1.47667
C          1.30107       -1.27099       -0.01576
O          0.65429       -2.26516       -0.21137
H         -0.73857       -1.17958        1.74449
H         -1.17102        0.51784        1.59786
C         -0.76032       -0.33322        1.07681
S         -1.91290       -0.77656       -0.28848
C         -3.01288        0.52771       -0.15050
N         -3.74790        1.39408       -0.09002
N          2.60767       -1.15842       -0.29173
H          1.58327        2.77404       -1.06335
H          3.11900       -0.32730       -0.08810
H          3.07442       -1.93679       -0.70037
