18
ModifiedRes-opt-5-11-12-13-251.log	Energy: -567276.1064846
C          1.23213        1.92664       -0.82519
O          1.56889        2.32906        0.25199
N          0.71196        0.70550       -1.05545
H          0.52677        0.43833       -1.99617
C          0.43391       -0.23634        0.01338
H          0.15826        0.34140        0.88487
C          1.69389       -1.05789        0.33444
O          1.82092       -2.18520       -0.05701
H         -0.43940       -1.76477       -1.24001
H         -0.85186       -1.90134        0.44166
C         -0.69398       -1.19413       -0.35740
S         -2.28797       -0.39927       -0.76418
C         -2.66430        0.29656        0.74800
N         -2.92831        0.76725        1.74908
N          2.60857       -0.40671        1.07200
H          1.32496        2.52991       -1.72599
H          2.52650        0.57206        1.24493
H          3.48838       -0.84941        1.21879
