%RWF=/scratch/bdw2292/Gau-ModifiedRes/,100GB
%Nosave
%Chk=ModifiedRes-sp-3-5-11-12-002.chk
%Mem=20GB
%Nproc=6
#P MP2/6-311++G** SP SCF=(qc,maxcycle=800) Guess=Indo MaxDisk=100GB Pop=NBORead

ModifiedRes Rotatable Bond SP Calculation on g2-node38.bme.utexas.edu

0 1
 C    1.962065   -1.880803    0.289575
 O    2.759719   -1.706578   -0.638913
 N    0.939661   -1.017137    0.558070
 H    0.456860   -1.135420    1.442869
 C    0.639750    0.147383   -0.299872
 H    0.891856   -0.148478   -1.329112
 C    1.528037    1.337981    0.128949
 O    1.038589    2.269237    0.771209
 H   -0.943369    1.597149    0.078532
 H   -1.274640    0.437621   -1.249139
 C   -0.869507    0.551783   -0.240496
 S   -1.965411   -0.428869    0.878594
 C   -3.477552    0.212917    0.438160
 N   -4.525535    0.648163    0.094781
 N    2.831428    1.264345   -0.249274
 H    2.035363   -2.731191    0.985755
 H    3.167241    0.425886   -0.716872
 H    3.452382    2.021421    0.003301

