%RWF=/scratch/bdw2292/Gau-ModifiedRes/,100GB
%Nosave
%Chk=ModifiedRes-sp-3-5-11-12-173.chk
%Mem=20GB
%Nproc=6
#P MP2/6-311++G** SP SCF=(qc,maxcycle=800) Guess=Indo MaxDisk=100GB Pop=NBORead

ModifiedRes Rotatable Bond SP Calculation on g2-node38.bme.utexas.edu

0 1
 C    2.619262   -1.339978    0.604250
 O    2.715336   -1.587386   -0.603162
 N    1.590235   -0.614656    1.129657
 H    1.692511   -0.250739    2.072229
 C    0.469444   -0.138511    0.302130
 H    0.297688   -0.894652   -0.478259
 C    0.838723    1.199987   -0.368480
 O    0.455006    2.256337    0.134609
 H   -1.122921   -0.975606    1.542004
 H   -0.555413    0.622522    2.052470
 C   -0.789697    0.000410    1.185247
 S   -2.195902    0.798346    0.293528
 C   -2.742495   -0.554545   -0.577793
 N   -3.125117   -1.520371   -1.147176
 N    1.607571    1.102612   -1.484531
 H    3.372933   -1.661364    1.340172
 H    1.987058    0.195166   -1.743141
 H    1.877642    1.951567   -1.962899

