18
ModifiedRes-sp-5-11-12-13-191.log	Energy: -567369.9676215
C          1.98837       -1.81618        0.44887
O          2.68537       -1.74264       -0.56963
N          0.98850       -0.92907        0.72411
H          0.60313       -0.92383        1.66437
C          0.61136        0.15582       -0.19925
H          0.72826       -0.24295       -1.21731
C          1.55598        1.36210       -0.01359
O          1.16463        2.34666        0.61562
H         -0.95694        1.03970        1.01955
H         -1.11883        1.32259       -0.72991
C         -0.85218        0.58588        0.03084
S         -2.01248       -0.84521       -0.10939
C         -3.49344       -0.00815       -0.12529
N         -4.53918        0.55015       -0.13869
N          2.78617        1.24214       -0.57822
H          2.13929       -2.58742        1.22046
H          3.05980        0.35235       -0.98785
H          3.43615        2.01139       -0.48694
