18
ModifiedRes-sp-3-5-11-12-287.log	Energy: -567369.9113207
C          2.05077       -1.78861        0.52737
O          2.65764       -1.76594       -0.54927
N          1.07780       -0.88527        0.84014
H          0.74913       -0.84780        1.80070
C          0.60679        0.13495       -0.11200
H          0.67425       -0.31076       -1.11511
C          1.51753        1.37903       -0.05187
O          1.11979        2.39656        0.51738
H         -0.99207        0.72821        1.24905
H         -1.10615        1.42955       -0.37214
C         -0.85564        0.52428        0.18543
S         -2.00201       -0.82600       -0.33467
C         -3.48982       -0.03449       -0.09938
N         -4.53971        0.49401        0.05611
N          2.73005        1.25004       -0.65234
H          2.26889       -2.52051        1.32066
H          3.00480        0.34803       -1.03372
H          3.35908        2.04177       -0.64418
