18
ModifiedRes-sp-5-11-12-13-221.log	Energy: -567369.5172523
C          1.97903       -1.85531        0.27577
O          2.48920       -1.77069       -0.84693
N          1.07850       -0.94435        0.74531
H          0.84178       -0.97014        1.73298
C          0.56642        0.16516       -0.07682
H          0.52267       -0.19389       -1.11570
C          1.53243        1.36628       -0.00863
O          1.23529        2.34886        0.67278
H         -0.81357        0.95083        1.41352
H         -1.19329        1.39200       -0.26697
C         -0.84313        0.58802        0.38359
S         -2.03174       -0.82347        0.26715
C         -3.39643       -0.01029       -0.34461
N         -4.34470        0.57981       -0.74162
N          2.67724        1.24115       -0.73024
H          2.23335       -2.65605        0.98792
H          2.87466        0.36253       -1.20300
H          3.33914        2.00544       -0.71987
