18
ModifiedRes-opt-11-5-7-15-257.log	Energy: -567275.7647404
C          1.91551       -1.80861        0.47453
O          2.53896       -1.84874       -0.54767
N          0.97240       -0.88657        0.75749
H          0.59645       -0.86042        1.67988
C          0.60513        0.16553       -0.17620
H          0.71658       -0.24511       -1.17036
C          1.54429        1.37421       -0.02947
O          1.19121        2.37757        0.52331
H         -0.96672        1.02851        1.03128
H         -1.09266        1.37215       -0.67836
C         -0.83470        0.61397        0.04405
S         -1.95643       -0.82136       -0.17730
C         -3.44852        0.00204       -0.10205
N         -4.45598        0.52718       -0.05328
N          2.76315        1.19582       -0.56697
H          2.05970       -2.53316        1.27309
H          3.05472        0.30578       -0.90855
H          3.44621        1.90547       -0.42109
