%RWF=/scratch/bdw2292/Gau-ModifiedRes/,100GB
%Nosave
%Chk=ModifiedRes-sp-11-5-7-15-011.chk
%Mem=20GB
%Nproc=6
#P MP2/6-311++G** SP SCF=(qc,maxcycle=800) Guess=Indo MaxDisk=100GB Pop=NBORead

ModifiedRes Rotatable Bond SP Calculation on g2-node38.bme.utexas.edu

0 1
 C    1.010269    2.316153   -0.797942
 O    0.480509    2.929596    0.130973
 N    1.183222    0.962792   -0.785563
 H    1.679024    0.555589   -1.574060
 C    0.941758    0.114551    0.395281
 H    0.941883    0.757078    1.285406
 C    2.123135   -0.895834    0.487296
 O    3.233133   -0.451906    0.771570
 H   -0.453053   -1.195033   -0.642535
 H   -0.506306   -1.335587    1.129003
 C   -0.399155   -0.637050    0.295225
 S   -1.814526    0.553983    0.353651
 C   -3.078945   -0.576254    0.226509
 N   -3.938559   -1.390209    0.174515
 N    1.930212   -2.225071    0.256312
 H    1.364359    2.813496   -1.714829
 H    1.034718   -2.635751    0.027237
 H    2.745369   -2.817341    0.347977

