18
ModifiedRes-sp-11-5-7-15-049.log	Energy: -567359.4094214
C         -1.81308        1.94922        0.52963
O         -2.34409        2.19683       -0.55204
N         -0.96752        0.89585        0.76219
H         -0.62938        0.77612        1.71134
C         -0.65831       -0.15001       -0.24075
H         -0.69522        0.34081       -1.22707
C         -1.73585       -1.26442       -0.19946
O         -2.56713       -1.34279       -1.09467
H          0.86762       -1.25231        0.97128
H          0.98540       -1.49838       -0.77723
C          0.75787       -0.75015       -0.00454
S          1.93670        0.68684       -0.12083
C          3.47588       -0.02653       -0.09609
N          4.54776       -0.52331       -0.07887
N         -1.72168       -2.13388        0.84329
H         -1.95903        2.58839        1.40879
H         -1.06280       -2.09360        1.60920
H         -2.37302       -2.90223        0.79158
