18
ModifiedRes-sp-3-5-11-12-192.log	Energy: -567368.3641974
C          2.84519       -1.38651        0.22059
O          3.26043       -0.92336       -0.84770
N          1.60477       -1.09997        0.71042
H          1.41623       -1.29879        1.68849
C          0.65916       -0.25127       -0.03179
H          0.84598       -0.43184       -1.10092
C          0.92534        1.23442        0.27585
O          0.30292        1.77653        1.18937
H         -0.88211       -1.73393        0.29303
H         -1.00568       -0.30942        1.35428
C         -0.78165       -0.64761        0.33802
S         -1.96560        0.14935       -0.82612
C         -3.42096       -0.31538       -0.08213
N         -4.44887       -0.62816        0.41896
N          1.87383        1.83294       -0.49122
H          3.45298       -2.04072        0.86506
H          2.46419        1.25590       -1.08444
H          2.08060        2.80815       -0.32133
