18
ModifiedRes-sp-5-11-12-13-281.log	Energy: -567370.1824996
C          1.40736        1.99817       -0.57532
O          1.76098        2.20105        0.59159
N          0.81458        0.83620       -0.97460
H          0.64905        0.69533       -1.96691
C          0.43222       -0.22432       -0.02683
H          0.15060        0.26164        0.91940
C          1.64037       -1.14862        0.23045
O          1.69327       -2.24697       -0.32638
H         -0.49389       -1.53035       -1.50685
H         -0.96705       -1.83933        0.17134
C         -0.75841       -1.05533       -0.55890
S         -2.23636        0.00374       -0.85943
C         -2.79542        0.12212        0.74302
N         -3.14271        0.22080        1.87186
N          2.58407       -0.66080        1.07777
H          1.56756        2.73001       -1.38258
H          2.49892        0.29523        1.41422
H          3.39424       -1.23054        1.28085
