18
ModifiedRes-opt-11-5-7-15-011.log	Energy: -567274.3824400
C          1.06595        2.32571       -0.32195
O          0.63257        2.68655        0.73257
N          1.16607        1.03600       -0.70797
H          1.63176        0.80577       -1.55896
C          0.87992       -0.05703        0.18312
H          0.90678        0.31969        1.19654
C          1.95267       -1.13018       -0.02083
O          2.47860       -1.27434       -1.08804
H         -0.54771       -0.99731       -1.13154
H         -0.60952       -1.59062        0.52426
C         -0.48405       -0.71123       -0.09151
S         -1.84763        0.45469        0.28861
C         -3.14388       -0.57778       -0.12400
N         -4.01847       -1.25392       -0.39175
N          2.20342       -1.91482        1.04454
H          1.41732        3.02280       -1.08050
H          1.88456       -1.68804        1.95804
H          2.90868       -2.61274        0.95538
