18
ModifiedRes-opt-3-5-11-12-268.log	Energy: -567275.7646990
C          1.91620       -1.80835        0.47413
O          2.53921       -1.84836       -0.54835
N          0.97270       -0.88681        0.75735
H          0.59778       -0.86028        1.68016
C          0.60499        0.16553       -0.17593
H          0.71602       -0.24493       -1.17022
C          1.54403        1.37439       -0.02965
O          1.19069        2.37802        0.52252
H         -0.96662        1.02772        1.03249
H         -1.09322        1.37212       -0.67694
C         -0.83482        0.61369        0.04503
S         -1.95655       -0.82171       -0.17665
C         -3.44865        0.00185       -0.10246
N         -4.45597        0.52732       -0.05423
N          2.76317        1.19576       -0.56632
H          2.06099       -2.53279        1.27269
H          3.05473        0.30591       -0.90839
H          3.44591        1.90585       -0.42120
