%RWF=/scratch/bdw2292/Gau-ModifiedRes/,100GB
%Nosave
%Chk=ModifiedRes-opt-3-5-11-12-097.chk
%Mem=20GB
%Nproc=6
#P opt=(,maxcycle=400) HF/6-31G* MaxDisk=100GB

ModifiedRes Rotatable Bond Optimization on g2-node38.bme.utexas.edu

0 1
 C    1.972717   -1.794138    0.500399
 O    2.641387   -1.773460   -0.539814
 N    0.997750   -0.879937    0.777170
 H    0.634347   -0.849697    1.725786
 C    0.611291    0.197473   -0.155146
 H    0.685831   -0.201861   -1.178728
 C    1.642972    1.344866   -0.023309
 O    1.377134    2.372581    0.594175
 H   -1.321458    0.806348   -0.882560
 H   -1.373939   -0.235249    0.572370
 C   -0.866336    0.602677    0.088961
 S   -1.248170    2.066166    1.161039
 C   -2.931510    1.861909    1.315631
 N   -4.104275    1.732810    1.433617
 N    2.838858    1.130718   -0.632883
 H    2.130311   -2.541696    1.293557
 H    3.035464    0.218897   -1.038114
 H    3.546625    1.850992   -0.578752

3 5 11 12 F
7 5 11 12 F
11 5 7 15 F
3 5 7 15 F
3 5 7 8 F
11 5 7 8 F
5 11 12 13 F

