18
ModifiedRes-opt-3-5-11-12-021.log	Energy: -567277.1181754
C          1.73627        1.95339       -0.36555
O          2.75067        1.82768        0.26259
N          0.68344        1.11859       -0.28919
H         -0.05843        1.22797       -0.94510
C          0.65521       -0.02349        0.60324
H          1.23538        0.24876        1.47678
C          1.30103       -1.27101       -0.01600
O          0.65450       -2.26549       -0.21085
H         -0.73844       -1.18006        1.74450
H         -1.17105        0.51735        1.59828
C         -0.76033       -0.33357        1.07702
S         -1.91312       -0.77689       -0.28814
C         -3.01241        0.52805       -0.15083
N         -3.74698        1.39484       -0.09089
N          2.60736       -1.15805       -0.29307
H          1.58292        2.77426       -1.06273
H          3.11875       -0.32699       -0.08930
H          3.07416       -1.93659       -0.70132
