18
ModifiedRes-sp-11-5-7-15-030.log	Energy: -567361.8211148
C         -0.89755        2.32311        0.60228
O         -0.32950        2.76276       -0.39905
N         -1.13106        0.99240        0.79738
H         -1.72017        0.75066        1.58969
C         -0.91122       -0.03919       -0.22842
H         -0.96578        0.43147       -1.22062
C         -2.08127       -1.05736       -0.20667
O         -3.08536       -0.81771       -0.87262
H          0.55430       -1.11435        0.98633
H          0.54285       -1.56423       -0.73174
C          0.44873       -0.73132       -0.02998
S          1.84835        0.43986       -0.34125
C          3.12996       -0.62055        0.01396
N          4.00203       -1.39272        0.23194
N         -1.96535       -2.18382        0.55062
H         -1.24610        2.97164        1.42162
H         -1.14254       -2.40849        1.09496
H         -2.74849       -2.82387        0.52647
