18
ModifiedRes-sp-11-5-7-15-087.log	Energy: -567363.8589016
C         -1.97847        1.89752        0.34020
O         -2.54586        1.95993       -0.74942
N         -1.04268        0.95145        0.64686
H         -0.69370        0.93888        1.60109
C         -0.63206       -0.13560       -0.26326
H         -0.71103        0.26946       -1.28191
C         -1.58176       -1.35281       -0.14091
O         -1.84284       -2.00599       -1.14928
H          0.89397       -0.98748        1.03723
H          1.08814       -1.36327       -0.68732
C          0.80770       -0.58350        0.02616
S          1.98741        0.82585       -0.15998
C          3.44489       -0.03568       -0.00596
N          4.44519       -0.65258        0.14422
N         -2.08818       -1.65728        1.08729
H         -2.18541        2.60724        1.15730
H         -1.93041       -1.08825        1.90892
H         -2.71245       -2.45235        1.12799
