%RWF=/scratch/bdw2292/Gau-ModifiedRes/,100GB
%Nosave
%Chk=ModifiedRes-sp-11-5-7-15-276.chk
%Mem=20GB
%Nproc=6
#P MP2/6-311++G** SP SCF=(qc,maxcycle=800) Guess=Indo MaxDisk=100GB Pop=NBORead

ModifiedRes Rotatable Bond SP Calculation on g2-node38.bme.utexas.edu

0 1
 C    1.872934   -2.055178    0.910626
 O    2.543973   -2.244557   -0.107130
 N    0.966902   -1.041158    1.019343
 H    0.489319   -0.919726    1.907430
 C    0.775297   -0.025684   -0.035286
 H    0.970662   -0.533077   -0.991890
 C    1.790666    1.122620    0.138832
 O    2.236482    1.374745    1.257751
 H   -0.856815    1.045973    0.930637
 H   -0.768497    1.265083   -0.828002
 C   -0.654619    0.541650   -0.017976
 S   -1.896246   -0.803710   -0.268185
 C   -3.291557    0.157009   -0.417667
 N   -4.242730    0.849960   -0.556004
 N    2.128566    1.799664   -0.992025
 H    1.950613   -2.695285    1.803557
 H    1.830431    1.478046   -1.904661
 H    2.803368    2.546913   -0.896123

