18
ModifiedRes-sp-11-5-7-15-295.log	Energy: -567365.6968668
C          2.01772       -1.90972        0.20730
O          2.52524       -1.86091       -0.91633
N          1.06814       -1.02621        0.63216
H          0.72056       -1.12078        1.58166
C          0.65313        0.14491       -0.16750
H          0.74069       -0.15155       -1.22314
C          1.60454        1.33614        0.09349
O          2.45139        1.26641        0.98289
H         -0.89403        0.84347        1.20121
H         -1.09046        1.39427       -0.47226
C         -0.79866        0.54907        0.15294
S         -1.95551       -0.84947       -0.19523
C         -3.42429       -0.02534        0.03765
N         -4.43309        0.58201        0.16810
N          1.43644        2.42741       -0.70361
H          2.28432       -2.68068        0.94773
H          0.83922        2.40220       -1.52107
H          2.05961        3.20773       -0.54272
