18
ModifiedRes-sp-3-5-11-12-116.log	Energy: -567353.3393297
C         -2.56903       -1.52686       -0.29135
O         -3.44749       -0.87844        0.28824
N         -1.24916       -1.18673       -0.24552
H         -0.62175       -1.64429       -0.90174
C         -0.70434       -0.09217        0.58523
H         -1.31134       -0.01437        1.50083
C         -0.84482        1.23433       -0.20722
O          0.13313        1.89060       -0.55226
H          0.73088       -0.38792        2.14625
H          0.98761       -1.43453        0.71071
C          0.74192       -0.42827        1.05478
S          2.19701        0.59015        0.52002
C          3.04505       -0.58547       -0.37716
N          3.58532       -1.41710       -1.02726
N         -2.11907        1.62696       -0.47552
H         -2.79119       -2.40850       -0.91314
H         -2.90289        1.09239       -0.10935
H         -2.26095        2.48636       -0.98938
