18
ModifiedRes-opt-3-5-11-12-211.log	Energy: -567273.7882299
C          2.78330       -1.37184        0.26093
O          3.17975       -1.07556       -0.82930
N          1.56848       -1.04035        0.74879
H          1.39349       -1.17879        1.72001
C          0.63786       -0.22470       -0.01353
H          0.80124       -0.46720       -1.05423
C          0.95168        1.25864        0.23712
O          0.40002        1.87282        1.10530
H         -0.90244       -1.65065        0.43413
H         -1.02155       -0.13998        1.35629
C         -0.78966       -0.57745        0.39758
S         -1.96263        0.08509       -0.84393
C         -3.42152       -0.30731       -0.05550
N         -4.40527       -0.56906        0.45143
N          1.89848        1.77137       -0.57132
H          3.37965       -1.95595        0.95890
H          2.47314        1.17173       -1.12262
H          2.23865        2.68352       -0.35963
