18
ModifiedRes-opt-3-5-11-12-135.log	Energy: -567276.3265220
C          2.48647       -1.40874        0.50249
O          2.56356       -1.67427       -0.66234
N          1.51177       -0.65423        1.05284
H          1.62160       -0.35780        1.99757
C          0.45104       -0.06082        0.25348
H          0.24725       -0.74892       -0.55413
C          0.92177        1.28762       -0.31162
O          0.62548        2.32177        0.22167
H         -1.02210       -0.79773        1.64447
H         -0.63382        0.91174        1.83733
C         -0.78920        0.11780        1.12106
S         -2.26203        0.64083        0.17631
C         -2.72995       -0.87741       -0.45276
N         -3.05208       -1.88057       -0.88136
N          1.69270        1.19671       -1.40715
H          3.21013       -1.77022        1.23061
H          2.03497        0.31600       -1.72448
H          2.11469        2.02954       -1.75330
