%RWF=/scratch/bdw2292/Gau-ModifiedRes/,100GB
%Nosave
%Chk=ModifiedRes-sp-3-5-11-12-135.chk
%Mem=20GB
%Nproc=6
#P MP2/6-311++G** SP SCF=(qc,maxcycle=800) Guess=Indo MaxDisk=100GB Pop=NBORead

ModifiedRes Rotatable Bond SP Calculation on g2-node38.bme.utexas.edu

0 1
 C    2.832780   -1.071653    0.792997
 O    3.010970   -1.468715   -0.364116
 N    1.670918   -0.486739    1.205219
 H    1.676358    0.008197    2.092080
 C    0.508009   -0.334505    0.310280
 H    0.492883   -1.199048   -0.369873
 C    0.682049    0.953730   -0.530669
 O    0.132159    2.005398   -0.212650
 H   -1.278390   -1.308387    1.054491
 H   -0.511492   -0.179143    2.212100
 C   -0.796458   -0.335184    1.169637
 S   -2.116485    0.920362    0.855140
 C   -2.824035    0.166839   -0.494664
 N   -3.271724   -0.364390   -1.454880
 N    1.503036    0.826704   -1.606794
 H    3.609878   -1.136359    1.570855
 H    2.023472   -0.037086   -1.736744
 H    1.648309    1.631272   -2.201716

