18
ModifiedRes-sp-11-5-7-15-257.log	Energy: -567368.0043132
C         -1.96852        1.91879        0.33436
O         -2.53804        1.88128       -0.75944
N         -1.01978        1.00996        0.70049
H         -0.64305        1.06130        1.64256
C         -0.64299       -0.13311       -0.15124
H         -0.75502        0.20663       -1.19140
C         -1.59908       -1.31598        0.09812
O         -1.87042       -1.62743        1.25776
H          0.92695       -0.91650        1.13784
H          1.05421       -1.40556       -0.56442
C          0.80658       -0.57853        0.10489
S          1.98870        0.80290       -0.22316
C          3.44867       -0.05665       -0.07247
N          4.45412       -0.66774        0.06938
N         -2.08391       -1.94868       -1.00368
H         -2.18247        2.68835        1.09279
H         -1.95116       -1.55463       -1.92678
H         -2.72187       -2.71871       -0.85194
