18
ModifiedRes-opt-11-5-7-15-030.log	Energy: -567267.9356725
C         -0.96457        2.30919        0.48841
O         -0.38945        2.72428       -0.47032
N         -1.18106        0.99495        0.74417
H         -1.78205        0.76542        1.50370
C         -0.89155       -0.02544       -0.24671
H         -0.91298        0.43234       -1.22303
C         -2.00340       -1.07810       -0.25493
O         -2.59077       -1.35477       -1.25431
H          0.54560       -1.10920        0.97098
H          0.56019       -1.53677       -0.73707
C          0.46192       -0.72030       -0.03437
S          1.86069        0.43568       -0.30431
C          3.11090       -0.66771        0.06972
N          3.95002       -1.39261        0.32323
N         -2.29774       -1.64050        0.95380
H         -1.36305        2.96232        1.26320
H         -1.61665       -1.67512        1.67883
H         -2.93874       -2.40460        0.92838
