18
ModifiedRes-opt-11-5-7-15-182.log	Energy: -567275.7647109
C          1.91571       -1.80848        0.47480
O          2.53966       -1.84841       -0.54712
N          0.97222       -0.88670        0.75737
H          0.59577       -0.86086        1.67958
C          0.60510        0.16542       -0.17623
H          0.71657       -0.24505       -1.17048
C          1.54424        1.37420       -0.02946
O          1.19131        2.37744        0.52360
H         -0.96685        1.02801        1.03144
H         -1.09258        1.37245       -0.67807
C         -0.83472        0.61392        0.04402
S         -1.95652       -0.82129       -0.17803
C         -3.44853        0.00220       -0.10184
N         -4.45622        0.52685       -0.05251
N          2.76292        1.19588       -0.56734
H          2.05979       -2.53293        1.27348
H          3.05458        0.30567       -0.90842
H          3.44608        1.90542       -0.42135
