18
ModifiedRes-sp-11-5-7-15-314.log	Energy: -567363.5199718
C          2.02600       -1.89069        0.24846
O          2.50507       -1.90450       -0.88857
N          1.07579       -0.99515        0.64895
H          0.73066       -1.06484        1.60153
C          0.65470        0.15088       -0.18383
H          0.74079       -0.17030       -1.23189
C          1.61179        1.35228        0.04201
O          2.66117        1.19190        0.66235
H         -0.89913        0.86593        1.17172
H         -1.11037        1.37148       -0.51202
C         -0.80337        0.54705        0.13095
S         -1.94244       -0.87479       -0.18036
C         -3.41889       -0.06126        0.04036
N         -4.43283        0.53917        0.16139
N          1.24008        2.56101       -0.46527
H          2.31468       -2.61909        1.02314
H          0.49109        2.66122       -1.13883
H          1.87858        3.32842       -0.30141
