18
ModifiedRes-sp-3-5-11-12-268.log	Energy: -567368.0383801
C          2.22042       -1.70832        0.56629
O          2.75270       -1.67978       -0.54919
N          1.20385       -0.86894        0.91693
H          0.93813       -0.82014        1.89610
C          0.59732        0.08120       -0.03104
H          0.63340       -0.39148       -1.02307
C          1.41674        1.38950       -0.06926
O          0.98711        2.39697        0.49500
H         -1.02422        0.26952        1.43014
H         -1.12438        1.39649        0.07140
C         -0.87223        0.37104        0.35482
S         -2.00328       -0.78438       -0.53383
C         -3.49583       -0.09107       -0.10269
N         -4.52618        0.38705        0.23684
N          2.59306        1.32575       -0.74731
H          2.54515       -2.39352        1.36497
H          2.90831        0.43202       -1.11666
H          3.16406        2.15861       -0.80197
