18
ModifiedRes-opt-11-5-7-15-068.log	Energy: -567275.7646751
C          1.91560       -1.80849        0.47431
O          2.53840       -1.84894       -0.54824
N          0.97218       -0.88664        0.75733
H          0.59846       -0.85879        1.68060
C          0.60510        0.16556       -0.17627
H          0.71657       -0.24510       -1.17039
C          1.54435        1.37410       -0.02941
O          1.19156        2.37714        0.52407
H         -0.96656        1.02938        1.03082
H         -1.09288        1.37167       -0.67911
C         -0.83472        0.61409        0.04388
S         -1.95643       -0.82148       -0.17608
C         -3.44851        0.00211       -0.10240
N         -4.45587        0.52750       -0.05466
N          2.76305        1.19596       -0.56755
H          2.06056       -2.53253        1.27320
H          3.05453        0.30603       -0.90949
H          3.44622        1.90546       -0.42141
