18
ModifiedRes-opt-11-5-7-15-163.log	Energy: -567275.7647354
C          1.91538       -1.80874        0.47451
O          2.53887       -1.84892       -0.54768
N          0.97242       -0.88657        0.75749
H          0.59636       -0.86054        1.67985
C          0.60516        0.16556       -0.17614
H          0.71658       -0.24502       -1.17033
C          1.54437        1.37428       -0.02948
O          1.19124        2.37776        0.52309
H         -0.96671        1.02848        1.03137
H         -1.09262        1.37223       -0.67824
C         -0.83467        0.61400        0.04413
S         -1.95641       -0.82131       -0.17735
C         -3.44849        0.00211       -0.10203
N         -4.45603        0.52710       -0.05324
N          2.76320        1.19578       -0.56682
H          2.05941       -2.53338        1.27302
H          3.05476        0.30569       -0.90829
H          3.44630        1.90539       -0.42096
