18
ModifiedRes-sp-11-5-7-15-200.log	Energy: -567369.9589060
C          1.99719       -1.81167        0.44963
O          2.69105       -1.73784       -0.57100
N          0.99421       -0.92831        0.72547
H          0.61130       -0.92306        1.66667
C          0.60824        0.15388       -0.19718
H          0.72735       -0.25046       -1.21288
C          1.55162        1.36207       -0.01390
O          1.16021        2.34631        0.61585
H         -0.95389        1.04309        1.01505
H         -1.12261        1.32023       -0.73633
C         -0.85525        0.58642        0.02677
S         -2.01265       -0.84671       -0.10995
C         -3.49454       -0.01126       -0.12400
N         -4.54097        0.54585       -0.13606
N          2.78178        1.24339       -0.57887
H          2.15347       -2.58041        1.22266
H          3.05667        0.35414       -0.98874
H          3.43132        2.01298       -0.48772
