18
ModifiedRes-sp-3-5-11-12-021.log	Energy: -567365.0166998
C          1.41059        2.04683       -0.45781
O          2.32137        2.16178        0.36996
N          0.59005        0.95759       -0.50614
H          0.02439        0.85475       -1.34222
C          0.60995       -0.12176        0.50801
H          0.87804        0.34416        1.46874
C          1.68857       -1.15471        0.10929
O          1.34892       -2.31298       -0.14276
H         -0.61929       -1.86741        0.88001
H         -1.25337       -0.36612        1.60532
C         -0.77675       -0.79577        0.72147
S         -1.98260       -0.60682       -0.66562
C         -3.20088        0.30852        0.09257
N         -4.01532        0.98099        0.62950
N          2.97328       -0.71235        0.07892
H          1.21739        2.79899       -1.23874
H          3.18411        0.23736        0.37510
H          3.70318       -1.36525       -0.17298
