18
ModifiedRes-opt-11-5-7-15-238.log	Energy: -567275.7647228
C          1.91569       -1.80858        0.47469
O          2.53949       -1.84847       -0.54732
N          0.97254       -0.88657        0.75756
H          0.59567       -0.86114        1.67959
C          0.60513        0.16541       -0.17618
H          0.71660       -0.24516       -1.17037
C          1.54418        1.37420       -0.02940
O          1.19125        2.37720        0.52409
H         -0.96677        1.02807        1.03147
H         -1.09259        1.37221       -0.67810
C         -0.83472        0.61381        0.04413
S         -1.95650       -0.82141       -0.17771
C         -3.44857        0.00199       -0.10206
N         -4.45594        0.52726       -0.05299
N          2.76268        1.19633       -0.56792
H          2.05967       -2.53327        1.27317
H          3.05446        0.30612       -0.90893
H          3.44593        1.90566       -0.42132
