18
ModifiedRes-opt-5-11-12-13-311.log	Energy: -567276.1064971
C          1.23182        1.92658       -0.82526
O          1.56878        2.32895        0.25189
N          0.71178        0.70541       -1.05552
H          0.52594        0.43840       -1.99615
C          0.43388       -0.23646        0.01341
H          0.15834        0.34132        0.88489
C          1.69402       -1.05780        0.33441
O          1.82078       -2.18543       -0.05621
H         -0.43955       -1.76512       -1.23969
H         -0.85190       -1.90150        0.44197
C         -0.69398       -1.19436       -0.35712
S         -2.28803       -0.39957       -0.76404
C         -2.66410        0.29674        0.74799
N         -2.92808        0.76786        1.74891
N          2.60905       -0.40613        1.07104
H          1.32446        2.52999       -1.72600
H          2.52682        0.57256        1.24426
H          3.48873       -0.84895        1.21826
