%RWF=/scratch/bdw2292/Gau-ModifiedRes/,100GB
%Nosave
%Chk=ModifiedRes-opt-3-5-11-12-287.chk
%Mem=20GB
%Nproc=6
#P opt=(,maxcycle=400) HF/6-31G* MaxDisk=100GB

ModifiedRes Rotatable Bond Optimization on g2-node38.bme.utexas.edu

0 1
 C    1.926431   -1.836046    0.494776
 O    2.630770   -1.792826   -0.520437
 N    0.945023   -0.923417    0.751652
 H    0.553594   -0.897319    1.688726
 C    0.600188    0.156010   -0.189530
 H    0.715692   -0.259441   -1.200909
 C    1.569758    1.344962   -0.018001
 O    1.197131    2.347695    0.592926
 H   -1.043307    0.786622    1.089917
 H   -1.015103    1.554149   -0.510220
 C   -0.856621    0.616927    0.027784
 S   -2.031001   -0.651037   -0.620601
 C   -3.479149    0.237255   -0.533648
 N   -4.502369    0.833829   -0.483467
 N    2.799957    1.190676   -0.574120
 H    2.054902   -2.599928    1.277574
 H    3.058107    0.289148   -0.967506
 H    3.465498    1.947343   -0.489816

3 5 11 12 F
7 5 11 12 F
11 5 7 15 F
3 5 7 15 F
3 5 7 8 F
11 5 7 8 F
5 11 12 13 F

