%RWF=/scratch/bdw2292/Gau-ModifiedRes/,100GB
%Nosave
%Chk=ModifiedRes-opt.chk
%Mem=20GB
%Nproc=6
#P opt=(maxcycle=400) MP2/6-31G* Guess=INDO MaxDisk=100GB

ModifiedRes Gaussian SP Calculation on g2-node38.bme.utexas.edu

0 1
 C    4.609000   12.859000   13.741000
 O    5.332000   13.714000   14.256000
 N    5.030000   11.608000   13.486000
 H    4.338000   10.945000   13.201000
 C    6.385000   11.136000   13.586000
 H    6.718000   11.623000   14.393000
 C    7.209000   11.524000   12.393000
 O    8.438000   11.513000   12.456000
 H    5.645000    9.557000   11.963000
 H    6.481000    8.718000   13.305000
 C    5.762000    9.496000   13.045000
 S    4.169000    9.088000   13.792000
 C    4.060000    7.528000   12.976000
 N    3.979000    6.503000   12.446000
 N    6.562000   11.768000   11.238000
 H    3.640000   13.114000   13.495000
 H    5.578000   11.771000   11.216000
 H    7.073000   11.944000   10.415000

