%RWF=/scratch/bdw2292/Gau-ModifiedRes/,100GB
%Nosave
%Chk=ModifiedRes-dma.chk
%Mem=20GB
%Nproc=6
#P MP2/6-311G** Sp Density=MP2 MaxDisk=100GB

 ModifiedRes Gaussian SP Calculation on g2-node38.bme.utexas.edu

0  1
C	       1.918037   -1.794855    0.462741
O	       2.577912   -1.790537   -0.578815
N	       0.932454   -0.899787    0.745205
H	       0.546111   -0.877034    1.683512
C	       0.585762    0.167214   -0.187510
H	       0.701817   -0.253119   -1.192694
C	       1.538359    1.364330   -0.022598
O	       1.197539    2.384743    0.576545
H	      -0.951510    1.098530    1.008749
H	      -1.115534    1.354082   -0.735699
C	      -0.844902    0.625723    0.030817
S	      -1.940728   -0.836397   -0.099663
C	      -3.423067   -0.010598   -0.128079
N	      -4.474938    0.537065   -0.149686
N	       2.752296    1.169215   -0.597354
H	       2.062169   -2.547535    1.254252
H	       3.018845    0.240314   -0.910457
H	       3.472329    1.857136   -0.414284
	

$nbo bndidx $end

