18
ModifiedRes-opt.log	Energy: -567268.0519989
C          1.91804       -1.79486        0.46274
O          2.57791       -1.79054       -0.57881
N          0.93245       -0.89979        0.74521
H          0.54611       -0.87703        1.68351
C          0.58576        0.16721       -0.18751
H          0.70182       -0.25312       -1.19269
C          1.53836        1.36433       -0.02260
O          1.19754        2.38474        0.57654
H         -0.95151        1.09853        1.00875
H         -1.11553        1.35408       -0.73570
C         -0.84490        0.62572        0.03082
S         -1.94073       -0.83640       -0.09966
C         -3.42307       -0.01060       -0.12808
N         -4.47494        0.53707       -0.14969
N          2.75230        1.16921       -0.59735
H          2.06217       -2.54753        1.25425
H          3.01884        0.24031       -0.91046
H          3.47233        1.85714       -0.41428
