%RWF=/scratch/bdw2292/Gau-TrimethylPhosphate/,100GB
%Nosave
%Chk=TrimethylPhosphate-dma_temp.chk
%Mem=20GB
%Nproc=4
#P MP2/6-311G** Sp Density=MP2 MaxDisk=100GB

TrimethylPhosphate Gaussian SP Calculation on bme-nova.bme.utexas.edu

0 1
 P    0.076841   -0.045011   -0.383146
 O    1.296605    0.689088    0.342370
 O   -0.512130   -0.905028    0.845780
 O   -0.940935    1.162240   -0.595661
 O    0.346530   -0.811581   -1.606283
 C    2.415481   -0.096640    0.757609
 C   -1.471623   -1.922491    0.551596
 C   -1.293447    2.012750    0.496914
 H    2.812871   -0.669964   -0.084578
 H    2.122282   -0.772460    1.566311
 H    3.169452    0.604187    1.116673
 H   -2.396542   -1.478944    0.168438
 H   -1.675885   -2.435167    1.492200
 H   -1.072517   -2.625122   -0.183811
 H   -1.646313    1.423266    1.348485
 H   -2.094890    2.658681    0.137485
 H   -0.434086    2.616756    0.798613

$nbo bndidx $end

