%RWF=/scratch/bdw2292/Gau-TrimethylPhosphate/,100GB
%Nosave
%Chk=TrimethylPhosphate-opt.chk
%Mem=20GB
%Nproc=4
#P opt=(maxcycle=400) wB97X-D/6-31G* Guess=INDO MaxDisk=100GB

TrimethylPhosphate Gaussian OPT Calculation on bme-nova.bme.utexas.edu

0 1
 P    0.134400   -0.066500   -0.429400
 O    1.366500    0.723500    0.265800
 O   -0.435000   -0.985300    0.777400
 O   -1.002800    1.067800   -0.645300
 O    0.499700   -0.824300   -1.674300
 C    2.486200   -0.025800    0.706000
 C   -1.609900   -1.745100    0.550700
 C   -1.439300    1.855700    0.449100
 H    2.910500   -0.589800   -0.128700
 H    2.187800   -0.709600    1.504700
 H    3.240800    0.664500    1.090800
 H   -2.441300   -1.089100    0.281500
 H   -1.862200   -2.282400    1.468100
 H   -1.434000   -2.468300   -0.249800
 H   -1.843600    1.221300    1.241300
 H   -2.225000    2.530700    0.101100
 H   -0.608200    2.450500    0.836600

