12691389
  -OEChem-04062017533D

  9  8  0     0  0  0  0  0  0999 V2000
    0.5142    0.0004   -0.0596 P   0  0  0  0  0  0  0  0  0  0  0  0
   -0.9195   -0.0040    0.7615 O   0  0  0  0  0  0  0  0  0  0  0  0
    1.5620   -0.0055    1.0494 O   0  5  0  0  0  0  0  0  0  0  0  0
    0.4865    1.2868   -0.8797 O   0  5  0  0  0  0  0  0  0  0  0  0
    0.4866   -1.2776   -0.8930 O   0  0  0  0  0  0  0  0  0  0  0  0
   -2.1299   -0.0001    0.0215 C   0  0  0  0  0  0  0  0  0  0  0  0
   -2.1886    0.8984   -0.5977 H   0  0  0  0  0  0  0  0  0  0  0  0
   -2.9678   -0.0039    0.7228 H   0  0  0  0  0  0  0  0  0  0  0  0
   -2.1885   -0.8920   -0.6074 H   0  0  0  0  0  0  0  0  0  0  0  0
  1  2  1  0  0  0  0
  1  3  1  0  0  0  0
  1  4  1  0  0  0  0
  1  5  2  0  0  0  0
  2  6  1  0  0  0  0
  6  7  1  0  0  0  0
  6  8  1  0  0  0  0
  6  9  1  0  0  0  0
M  CHG  2   3  -1   4  -1
M  END
> <PUBCHEM_COMPOUND_CID>
12691389

> <PUBCHEM_CONFORMER_RMSD>
0.4

> <PUBCHEM_CONFORMER_DIVERSEORDER>
1

> <PUBCHEM_MMFF94_PARTIAL_CHARGES>
6
1 1.37
2 -0.55
3 -1.03
4 -1.03
5 -1.03
6 0.28

> <PUBCHEM_EFFECTIVE_ROTOR_COUNT>
1

> <PUBCHEM_PHARMACOPHORE_FEATURES>
4
1 3 acceptor
1 4 acceptor
1 5 acceptor
4 1 3 4 5 anion

> <PUBCHEM_HEAVY_ATOM_COUNT>
6

> <PUBCHEM_ATOM_DEF_STEREO_COUNT>
0

> <PUBCHEM_ATOM_UDEF_STEREO_COUNT>
0

> <PUBCHEM_BOND_DEF_STEREO_COUNT>
0

> <PUBCHEM_BOND_UDEF_STEREO_COUNT>
0

> <PUBCHEM_ISOTOPIC_ATOM_COUNT>
0

> <PUBCHEM_COMPONENT_COUNT>
1

> <PUBCHEM_CACTVS_TAUTO_COUNT>
1

> <PUBCHEM_CONFORMER_ID>
00C1A7BD00000001

> <PUBCHEM_MMFF94_ENERGY>
13.8953

> <PUBCHEM_FEATURE_SELFOVERLAP>
20.34

> <PUBCHEM_SHAPE_FINGERPRINT>
139733 1 15338827707400322688
20096714 4 17825685600907324453
24536 1 18338537282230077073
29004967 10 17530952579797291856
5943 1 10828605682993987316

> <PUBCHEM_SHAPE_MULTIPOLES>
103.85
2.05
1.03
1.03
1.17
0
-0.03
0
-0.4
-0.24
0.41
-0.29
0
0

> <PUBCHEM_SHAPE_SELFOVERLAP>
173.773

> <PUBCHEM_SHAPE_VOLUME>
71.4

> <PUBCHEM_COORDINATE_TYPE>
2
5
10

$$$$
