13134
  -OEChem-04022011473D

 14 13  0     0  0  0  0  0  0999 V2000
   -0.0480    0.5838    0.0548 P   0  0  0  0  0  0  0  0  0  0  0  0
    1.0540   -0.3432    0.7945 O   0  0  0  0  0  0  0  0  0  0  0  0
   -1.0030   -0.4567   -0.7379 O   0  0  0  0  0  0  0  0  0  0  0  0
    0.7758    1.3053   -1.1370 O   0  0  0  0  0  0  0  0  0  0  0  0
   -0.7766    1.5356    0.9596 O   0  0  0  0  0  0  0  0  0  0  0  0
    1.8082   -1.2823    0.0475 C   0  0  0  0  0  0  0  0  0  0  0  0
   -1.8103   -1.3425    0.0185 C   0  0  0  0  0  0  0  0  0  0  0  0
    1.1475   -1.9997   -0.4447 H   0  0  0  0  0  0  0  0  0  0  0  0
    2.4684   -1.8217    0.7313 H   0  0  0  0  0  0  0  0  0  0  0  0
    2.4178   -0.7653   -0.6978 H   0  0  0  0  0  0  0  0  0  0  0  0
   -2.5214   -0.7716    0.6213 H   0  0  0  0  0  0  0  0  0  0  0  0
   -1.1880   -1.9629    0.6682 H   0  0  0  0  0  0  0  0  0  0  0  0
   -2.3623   -1.9878   -0.6690 H   0  0  0  0  0  0  0  0  0  0  0  0
    1.3278    2.0880   -0.9251 H   0  0  0  0  0  0  0  0  0  0  0  0
  1  2  1  0  0  0  0
  1  3  1  0  0  0  0
  1  4  1  0  0  0  0
  1  5  2  0  0  0  0
  2  6  1  0  0  0  0
  3  7  1  0  0  0  0
  4 14  1  0  0  0  0
  6  8  1  0  0  0  0
  6  9  1  0  0  0  0
  6 10  1  0  0  0  0
  7 11  1  0  0  0  0
  7 12  1  0  0  0  0
  7 13  1  0  0  0  0
M  END
> <PUBCHEM_COMPOUND_CID>
13134

> <PUBCHEM_CONFORMER_RMSD>
0.4

> <PUBCHEM_CONFORMER_DIVERSEORDER>
1
3
5
6
2
4

> <PUBCHEM_MMFF94_PARTIAL_CHARGES>
8
1 1.51
14 0.5
2 -0.55
3 -0.55
4 -0.77
5 -0.7
6 0.28
7 0.28

> <PUBCHEM_EFFECTIVE_ROTOR_COUNT>
2

> <PUBCHEM_PHARMACOPHORE_FEATURES>
2
1 4 acceptor
1 5 acceptor

> <PUBCHEM_HEAVY_ATOM_COUNT>
7

> <PUBCHEM_ATOM_DEF_STEREO_COUNT>
0

> <PUBCHEM_ATOM_UDEF_STEREO_COUNT>
0

> <PUBCHEM_BOND_DEF_STEREO_COUNT>
0

> <PUBCHEM_BOND_UDEF_STEREO_COUNT>
0

> <PUBCHEM_ISOTOPIC_ATOM_COUNT>
0

> <PUBCHEM_COMPONENT_COUNT>
1

> <PUBCHEM_CACTVS_TAUTO_COUNT>
1

> <PUBCHEM_CONFORMER_ID>
0000334E00000001

> <PUBCHEM_MMFF94_ENERGY>
-7.3936

> <PUBCHEM_FEATURE_SELFOVERLAP>
10.159

> <PUBCHEM_SHAPE_FINGERPRINT>
137420 1 17327524249761604139
139733 1 9295010223052117411
16714656 1 17759532070893836118
21040471 1 17552356570860289962
24536 1 17483359008172292018
29004967 10 18267853050865987395
5943 1 15045486930009769060

> <PUBCHEM_SHAPE_MULTIPOLES>
124.43
2.05
1.72
0.97
0
0.16
0.06
-1.23
-0.02
0.09
-0.05
-0.05
0.32
-0.35

> <PUBCHEM_SHAPE_SELFOVERLAP>
208.041

> <PUBCHEM_SHAPE_VOLUME>
85.9

> <PUBCHEM_COORDINATE_TYPE>
2
5
10

$$$$
