962
 OpenBabel04062014083D

  3  2  0  0  0  0  0  0  0  0999 V2000
    1.0451    0.0632    0.0546 O   0  0  0  0  0  0  0  0  0  0  0  0
    0.7662   -0.1091    0.9664 H   0  0  0  0  0  0  0  0  0  0  0  0
    2.0130    0.0546    0.1002 H   0  0  0  0  0  0  0  0  0  0  0  0
  1  2  1  0  0  0  0
  1  3  1  0  0  0  0
M  END
>  <PUBCHEM_COMPOUND_CID>
962

>  <PUBCHEM_COMPOUND_CANONICALIZED>
1

>  <PUBCHEM_CACTVS_COMPLEXITY>
0

>  <PUBCHEM_CACTVS_HBOND_ACCEPTOR>
1

>  <PUBCHEM_CACTVS_HBOND_DONOR>
1

>  <PUBCHEM_CACTVS_ROTATABLE_BOND>
0

>  <PUBCHEM_CACTVS_SUBSKEYS>
AAADcQAAIAAAAAAAAAAAAAAAAAAAAAAAAAAAAAAAAAAAAAAAAAAAAAAACAAAAAAAAAAAAAAAAAAAAAAAAAAAAAAAAAAAAAAAAAAAAAAAAAAAAAAAAAAAAAAAAAAAAAAAAAAAAAAAAAAAAAAAAAAAAAAAAA==

>  <PUBCHEM_IUPAC_OPENEYE_NAME>
water

>  <PUBCHEM_IUPAC_CAS_NAME>
oxidane

>  <PUBCHEM_IUPAC_NAME_MARKUP>
oxidane

>  <PUBCHEM_IUPAC_NAME>
oxidane

>  <PUBCHEM_IUPAC_SYSTEMATIC_NAME>
oxidane

>  <PUBCHEM_IUPAC_TRADITIONAL_NAME>
water

>  <PUBCHEM_IUPAC_INCHI>
InChI=1S/H2O/h1H2

>  <PUBCHEM_IUPAC_INCHIKEY>
XLYOFNOQVPJJNP-UHFFFAOYSA-N

>  <PUBCHEM_XLOGP3_AA>
-0.5

>  <PUBCHEM_EXACT_MASS>
18.010565

>  <PUBCHEM_MOLECULAR_FORMULA>
H2O

>  <PUBCHEM_MOLECULAR_WEIGHT>
18.015

>  <PUBCHEM_OPENEYE_CAN_SMILES>
O

>  <PUBCHEM_OPENEYE_ISO_SMILES>
O

>  <PUBCHEM_CACTVS_TPSA>
1

>  <PUBCHEM_MONOISOTOPIC_WEIGHT>
18.010565

>  <PUBCHEM_TOTAL_CHARGE>
0

>  <PUBCHEM_HEAVY_ATOM_COUNT>
1

>  <PUBCHEM_ATOM_DEF_STEREO_COUNT>
0

>  <PUBCHEM_ATOM_UDEF_STEREO_COUNT>
0

>  <PUBCHEM_BOND_DEF_STEREO_COUNT>
0

>  <PUBCHEM_BOND_UDEF_STEREO_COUNT>
0

>  <PUBCHEM_ISOTOPIC_ATOM_COUNT>
0

>  <PUBCHEM_COMPONENT_COUNT>
1

>  <PUBCHEM_CACTVS_TAUTO_COUNT>
-1

>  <PUBCHEM_COORDINATE_TYPE>
1
5
255

$$$$
