68
MOLECULE0-opt-25-28-29-35-146.log	Energy: -992572.0668082
C          0.09930        4.42998       -0.56812
C          1.45002        4.32897       -0.25790
C          2.09578        3.10725       -0.43987
C          1.33379        2.04409       -0.94279
N          0.03713        2.12358       -1.23445
C         -0.56285        3.30223       -1.04194
C          3.51970        2.87953       -0.08841
C          4.47139        3.89087        0.01071
C          5.75430        3.49018        0.38139
N          6.09555        2.23056        0.61786
C          5.10412        1.32847        0.47134
N          3.84294        1.60506        0.14343
N          5.47131        0.02950        0.69238
C          4.73898       -1.15905        0.50718
C          5.45385       -2.36431        0.35966
C          4.71990       -3.52888        0.15450
C          3.32973       -3.55232        0.07138
C          2.64415       -2.34976        0.22516
C          3.34872       -1.17054        0.47079
N          1.24864       -2.20788        0.12836
C          0.30565       -3.12864       -0.25065
C         -1.06798       -2.54960       -0.44040
C         -1.29537       -1.22165       -0.81831
C         -2.59041       -0.74800       -0.97550
C         -3.68599       -1.58456       -0.75662
C         -3.45477       -2.91106       -0.39092
C         -2.16017       -3.39498       -0.24676
C         -5.09558       -1.06630       -0.94962
N         -5.25290        0.29454       -0.45341
C         -5.12804        0.41236        1.00226
C         -6.38025       -0.06804        1.75015
N         -7.60979        0.57934        1.29443
C         -7.76727        1.93658        1.78599
C         -7.73098        0.46412       -0.15740
C         -6.47995        0.94795       -0.90704
O          0.53668       -4.31692       -0.40722
C          6.96048       -2.39300        0.40588
H         -0.43650        5.36303       -0.43036
H          1.98312        5.18433        0.14716
H          1.81360        1.08482       -1.11729
H         -1.62429        3.34198       -1.27525
H          4.24916        4.93002       -0.19770
H          6.54927        4.22559        0.48839
H          6.45671       -0.06295        0.88890
H          5.25900       -4.46559        0.03729
H          2.79069       -4.47077       -0.11271
H          2.81383       -0.24157        0.60100
H          0.90680       -1.27693        0.31411
H         -0.47895       -0.53657       -1.03323
H         -2.75893        0.28559       -1.26011
H         -4.29817       -3.57471       -0.21468
H         -1.97688       -4.42953        0.02464
H         -5.31521       -1.04236       -2.02521
H         -5.80376       -1.79187       -0.51090
H         -4.24532       -0.14648        1.32914
H         -4.94035        1.46952        1.23203
H         -6.26786        0.10131        2.82707
H         -6.50111       -1.15063        1.60946
H         -7.00020        2.65621        1.44827
H         -7.75052        1.92428        2.88109
H         -8.74333        2.32107        1.47083
H         -8.61485        1.02370       -0.48510
H         -7.91431       -0.59286       -0.39446
H         -6.35452        2.02858       -0.75559
H         -6.59208        0.78661       -1.98539
H          7.35356       -2.06808        1.37911
H          7.40480       -1.74800       -0.36310
H          7.33151       -3.40670        0.23517
