68
MOLECULE0-opt-22-21-20-18-112.log	Energy: -992571.3957496
C         -0.47393        4.27477       -0.77246
C          0.87060        4.19222       -0.43110
C          1.54704        2.99017       -0.63182
C          0.82065        1.92593       -1.18256
N         -0.46829        1.98956       -1.51176
C         -1.09723        3.14968       -1.30113
C          2.96889        2.78913       -0.25399
C          3.89998        3.81911       -0.15535
C          5.18588        3.44669        0.23477
N          5.54513        2.19748        0.49681
C          4.57163        1.27506        0.35527
N          3.31159        1.52362       -0.00134
N          4.96022       -0.01080        0.61490
C          4.24479       -1.21698        0.49536
C          4.96873       -2.42655        0.47987
C          4.24831       -3.60941        0.33773
C          2.86260       -3.65078        0.19446
C          2.17116       -2.44333        0.21677
C          2.85925       -1.24340        0.39431
N          0.78469       -2.30539        0.03846
C         -0.15542       -3.23268       -0.33137
C         -1.47487       -2.60121       -0.67568
C         -1.55002       -1.35838       -1.31146
C         -2.78235       -0.77893       -1.57488
C         -3.96569       -1.40986       -1.19129
C         -3.88401       -2.67725       -0.60760
C         -2.65391       -3.27432       -0.35768
C         -5.30265       -0.70387       -1.34794
N         -5.69227        0.22648       -0.29917
C         -5.02486        1.52295       -0.24722
C         -3.81469        1.57754        0.70299
N         -4.11189        1.06876        2.03912
C         -4.90017        1.97811        2.85168
C         -4.67851       -0.27446        1.94029
C         -5.91384       -0.33966        1.02685
O          0.03646       -4.43656       -0.36457
C          6.47149       -2.44220        0.59988
H         -1.03337        5.19146       -0.61997
H          1.37563        5.04544        0.01256
H          1.32482        0.98055       -1.36621
H         -2.15218        3.17638       -1.56552
H          3.66106        4.85077       -0.38190
H          5.96751        4.19683        0.33715
H          5.94155       -0.07685        0.84036
H          4.79666       -4.54802        0.32413
H          2.33383       -4.58485        0.06302
H          2.31406       -0.31212        0.42029
H          0.44612       -1.35894        0.12955
H         -0.65359       -0.83357       -1.62870
H         -2.81026        0.19040       -2.06602
H         -4.79873       -3.19689       -0.33086
H         -2.59020       -4.25678        0.09945
H         -5.30859       -0.14869       -2.29376
H         -6.09514       -1.45957       -1.42205
H         -4.72331        1.80425       -1.26335
H         -5.76589        2.26831        0.07897
H         -3.45711        2.61134        0.79250
H         -2.99007        0.98215        0.29562
H         -5.91025        2.20612        2.46791
H         -4.36209        2.92729        2.95178
H         -5.01581        1.55119        3.85388
H         -4.93690       -0.62292        2.94764
H         -3.89699       -0.93820        1.55260
H         -6.74222        0.20917        1.49908
H         -6.24810       -1.37731        0.91600
H          6.81669       -2.03101        1.55839
H          6.95189       -1.86537       -0.20112
H          6.85190       -3.46475        0.53579
