%RWF=/scratch/bdw2292/Gau-MOLECULE0/,100GB
%Nosave
%Chk=MOLECULE0-opt-29-28-25-24-333.chk
%Mem=20GB
%Nproc=6
#P opt=(,maxcycle=400) wB97XD/6-31G* MaxDisk=100GB

MOLECULE0 Rotatable Bond Optimization on node37.bme.utexas.edu

0 1
 C   -1.030465    2.301545    4.693305
 C    0.324432    2.069051    4.970634
 C    1.086055    1.249572    4.114417
 C    0.396722    0.743214    2.985087
 N   -0.892550    0.954533    2.698798
 C   -1.594581    1.715731    3.553407
 C    2.532143    0.890820    4.359941
 C    3.330042    1.366239    5.412535
 C    4.640310    0.874315    5.450424
 N    5.145113   -0.000725    4.583997
 C    4.303151   -0.415979    3.614520
 N    3.044263    0.008506    3.480377
 N    4.818105   -1.347873    2.720853
 C    4.280680   -1.970656    1.533449
 C    5.154809   -2.616163    0.606912
 C    4.567375   -3.203438   -0.528560
 C    3.193453   -3.179648   -0.803416
 C    2.356727   -2.535888    0.111963
 C    2.908034   -1.962745    1.265387
 N    0.953693   -2.354563   -0.003684
 C   -0.061979   -3.221531   -0.318532
 C   -1.418890   -2.607102   -0.606325
 C   -1.578452   -1.369546   -1.251963
 C   -2.852416   -0.839286   -1.464448
 C   -4.009457   -1.524522   -1.050269
 C   -3.835312   -2.764892   -0.405935
 C   -2.565607   -3.313738   -0.209634
 C   -5.398289   -0.914182   -1.241733
 N   -5.925516    0.054283   -0.264589
 C   -5.395435    1.438012   -0.263942
 C   -4.326698    1.752654    0.813643
 N   -4.696087    1.368870    2.194094
 C   -5.605237    2.276404    2.906564
 C   -5.095440   -0.059918    2.173131
 C   -6.182673   -0.401431    1.120629
 O    0.090741   -4.430302   -0.346623
 C    6.659919   -2.690030    0.795793
 H   -1.642835    2.911105    5.351003
 H    0.749882    2.509995    5.868893
 H    0.921751    0.131218    2.262317
 H   -2.646710    1.856102    3.314855
 H    2.988239    2.070470    6.160914
 H    5.324600    1.200855    6.233262
 H    5.786362   -1.530643    2.938037
 H    5.205624   -3.705424   -1.255071
 H    2.782798   -3.634229   -1.696592
 H    2.250220   -1.489474    1.974977
 H    0.679577   -1.386880    0.100904
 H   -0.700452   -0.822917   -1.586556
 H   -2.940683    0.128349   -1.958474
 H   -4.703084   -3.326253   -0.060664
 H   -2.439539   -4.275579    0.281354
 H   -5.420046   -0.417779   -2.223201
 H   -6.127427   -1.736288   -1.286098
 H   -5.075711    1.719027   -1.238613
 H   -6.619449    2.382338    0.094247
 H   -4.042446    3.117721    0.783291
 H   -3.093771    1.017999    0.478658
 H   -6.585088    2.320058    2.418227
 H   -5.181434    3.286739    2.936798
 H   -5.741276    1.938304    3.940339
 H   -5.369766   -0.373396    3.156364
 H   -3.807619   -0.880302    1.755562
 H   -7.476121    0.289296    1.596794
 H   -6.407564   -1.762396    1.137017
 H    6.922341   -3.266104    1.694348
 H    7.101979   -1.689573    0.903931
 H    7.174865   -3.170631   -0.047431

24 25 28 29 F
26 25 28 29 F
12 11 13 14 F
10 11 13 14 F
19 18 20 21 F
17 18 20 21 F
36 21 22 23 F
20 21 22 23 F
36 21 22 27 F
20 21 22 27 F
25 28 29 35 F
25 28 29 30 F

