%RWF=/scratch/bdw2292/Gau-MOLECULE0/,100GB
%Nosave
%Chk=MOLECULE0-opt-2-3-7-8-199.chk
%Mem=20GB
%Nproc=6
#P opt=(,maxcycle=400) wB97XD/6-31G* MaxDisk=100GB

MOLECULE0 Rotatable Bond Optimization on node37.bme.utexas.edu

0 1
 C   -0.238059    4.187747   -0.976356
 C    1.091015    4.122584   -0.542526
 C    1.843837    2.947368   -0.738733
 C    1.163950    1.872140   -1.358998
 N   -0.108608    1.915057   -1.774207
 C   -0.789224    3.056701   -1.587072
 C    3.277656    2.798730   -0.299899
 C    4.183761    1.838731   -0.777536
 C    5.474040    1.904919   -0.241700
 N    5.864723    2.791997    0.668714
 C    4.923653    3.668081    1.080162
 N    3.667685    3.699616    0.623836
 N    5.347705    4.578871    2.037497
 C    4.681881    5.608208    2.796215
 C    5.315965    6.139040    3.960817
 C    4.628837    7.141802    4.666021
 C    3.366031    7.625381    4.304177
 C    2.755220    7.090336    3.165484
 C    3.424844    6.100931    2.427045
 N    1.459499    7.436547    2.666323
 C    0.457320    8.212867    3.198160
 C   -0.899050    8.136039    2.524005
 C   -1.410496    6.942908    1.986486
 C   -2.649766    6.930631    1.343762
 C   -3.425105    8.099344    1.223953
 C   -2.910323    9.283134    1.787442
 C   -1.677837    9.301611    2.445350
 C   -4.749317    8.089600    0.458035
 N   -4.728624    8.232276   -1.008887
 C   -4.303057    7.079467   -1.833272
 C   -2.797051    7.086690   -2.200110
 N   -2.344645    8.335987   -2.855012
 C   -2.593769    8.458319   -4.296401
 C   -2.742024    9.493828   -2.016001
 C   -4.235996    9.499621   -1.596587
 O    0.628448    8.953217    4.152729
 C    6.671652    5.672294    4.463378
 H   -0.826979    5.090681   -0.849993
 H    1.537306    4.998758   -0.083149
 H    1.657086    0.915926   -1.518377
 H   -1.819792    3.059606   -1.938224
 H    3.944528    1.103872   -1.537167
 H    6.240591    1.202573   -0.568038
 H    6.309003    4.389414    2.278859
 H    5.083854    7.572072    5.557663
 H    2.860069    8.383708    4.889471
 H    2.956155    5.674181    1.554619
 H    1.217559    6.973021    1.802214
 H   -0.837556    6.023607    2.082469
 H   -3.013854    5.990563    0.928813
 H   -3.475135   10.212170    1.711938
 H   -1.292252   10.216007    2.888899
 H   -5.277747    7.152678    0.687205
 H   -5.383454    8.899560    0.846001
 H   -4.616734    6.158140   -1.390036
 H   -5.068285    7.194298   -3.202720
 H   -2.577929    5.931964   -3.171975
 H   -2.175978    6.916861   -1.341128
 H   -3.667890    8.507780   -4.507772
 H   -2.167211    7.600438   -4.828329
 H   -2.116165    9.364666   -4.686186
 H   -2.456655   10.443787   -2.530663
 H   -1.931864    9.408445   -0.756655
 H   -5.040530    9.726234   -2.938259
 H   -4.475103   10.351301   -0.935785
 H    7.467224    5.899629    3.739793
 H    6.683865    4.587290    4.638999
 H    6.964101    6.144450    5.411421

8 7 3 2 F
12 7 3 2 F
8 7 3 4 F
12 7 3 4 F
14 13 11 12 F
14 13 11 10 F
15 14 13 11 F
19 14 13 11 F
19 18 20 21 F
17 18 20 21 F
22 21 20 18 F
36 21 20 18 F
20 21 22 23 F
36 21 22 23 F
36 21 22 27 F
20 21 22 27 F
29 28 25 24 F
29 28 25 26 F
25 28 29 35 F
25 28 29 30 F

