68
MOLECULE0-opt-23-22-21-36-243.log	Energy: -992571.3958626
C         -0.47360        4.27507       -0.77120
C          0.87098        4.19243       -0.43011
C          1.54741        2.99044       -0.63134
C          0.82091        1.92637       -1.18225
N         -0.46810        1.99009       -1.51118
C         -1.09701        3.15012       -1.30006
C          2.96932        2.78930       -0.25382
C          3.90032        3.81929       -0.15462
C          5.18628        3.44675        0.23521
N          5.54565        2.19744        0.49656
C          4.57223        1.27500        0.35446
N          3.31218        1.52366       -0.00206
N          4.96101       -0.01098        0.61303
C          4.24527       -1.21708        0.49459
C          4.96904       -2.42677        0.47960
C          4.24841       -3.60961        0.33842
C          2.86263       -3.65088        0.19574
C          2.17137       -2.44332        0.21749
C          2.85972       -1.24336        0.39388
N          0.78482       -2.30534        0.03988
C         -0.15521       -3.23244       -0.33071
C         -1.47461       -2.60091       -0.67506
C         -1.54967       -1.35780       -1.31034
C         -2.78197       -0.77851       -1.57421
C         -3.96540       -1.40987       -1.19156
C         -3.88377       -2.67745       -0.60831
C         -2.65367       -3.27437       -0.35796
C         -5.30246       -0.70419       -1.34878
N         -5.69281        0.22585       -0.30001
C         -5.02614        1.52268       -0.24781
C         -3.81621        1.57784        0.70269
N         -4.11344        1.06879        2.03871
C         -4.90244        1.97768        2.85112
C         -4.67931       -0.27471        1.93961
C         -5.91441       -0.34053        1.02588
O          0.03676       -4.43629       -0.36462
C          6.47183       -2.44254        0.59910
H         -1.03301        5.19172       -0.61834
H          1.37608        5.04553        0.01371
H          1.32504        0.98105       -1.36634
H         -2.15200        3.17694       -1.56430
H          3.66133        4.85108       -0.38052
H          5.96784        4.19691        0.33800
H          5.94226       -0.07706        0.83886
H          4.79663       -4.54830        0.32521
H          2.33368       -4.58495        0.06506
H          2.31467       -0.31198        0.41928
H          0.44626       -1.35893        0.13142
H         -0.65319       -0.83267       -1.62690
H         -2.80980        0.19099       -2.06503
H         -4.79852       -3.19742       -0.33229
H         -2.59004       -4.25702        0.09878
H         -5.30803       -0.14879       -2.29447
H         -6.09472       -1.46008       -1.42350
H         -4.72448        1.80421       -1.26383
H         -5.76764        2.26764        0.07822
H         -3.45914        2.61181        0.79235
H         -2.99124        0.98285        0.29545
H         -5.91250        2.20522        2.46702
H         -4.36485        2.92710        2.95151
H         -5.01820        1.55058        3.85324
H         -4.93775       -0.62344        2.94686
H         -3.89731       -0.93802        1.55201
H         -6.74323        0.20773        1.49796
H         -6.24798       -1.37838        0.91486
H          6.81740       -2.03109        1.55737
H          6.95202       -1.86601       -0.20224
H          6.85211       -3.46515        0.53519
