68
MOLECULE0-opt-2-3-7-8-255.log	Energy: -992574.0090254
C         -0.64596        2.62324        0.53342
C          0.69497        2.26720        0.51004
C          1.61981        3.13910       -0.07226
C          1.13159        4.32611       -0.62485
N         -0.15201        4.68318       -0.61344
C         -1.01080        3.84160       -0.03526
C          3.06204        2.79885       -0.11240
C          4.06356        3.76562       -0.16761
C          5.37322        3.29531       -0.20438
N          5.69020        2.00844       -0.17960
C          4.64750        1.15657       -0.11030
N          3.35749        1.49376       -0.08089
N          5.01431       -0.16151       -0.06613
C          4.25066       -1.33554        0.02619
C          4.92852       -2.53007        0.34633
C          4.17821       -3.69742        0.43435
C          2.80243       -3.73511        0.22764
C          2.15469       -2.54474       -0.09197
C          2.87746       -1.35548       -0.20138
N          0.77050       -2.44646       -0.33576
C         -0.21446       -3.35630       -0.04801
C         -1.59874       -2.86213       -0.36035
C         -1.87982       -2.01448       -1.43523
C         -3.17635       -1.56324       -1.64848
C         -4.21285       -1.92370       -0.78582
C         -3.93107       -2.81283        0.25382
C         -2.64177       -3.28500        0.46305
C         -5.60282       -1.32650       -0.93937
N         -5.84711       -0.03541       -0.31638
C         -5.33468        1.15702       -0.97941
C         -3.95635        1.61669       -0.47712
N         -3.88470        1.74140        0.97871
C         -4.56795        2.91482        1.50037
C         -4.31767        0.48860        1.60082
C         -5.71134        0.03504        1.13312
O         -0.01772       -4.45385        0.44588
C          6.41576       -2.54628        0.59291
H         -1.41498        1.99727        0.97923
H          1.04381        1.33571        0.94568
H          1.80772        5.01675       -1.12534
H         -2.05179        4.15715       -0.02408
H          3.84924        4.82669       -0.15663
H          6.20855        3.99128       -0.24911
H          6.01745       -0.26958       -0.05913
H          4.68942       -4.62385        0.68333
H          2.24522       -4.65570        0.32460
H          2.37434       -0.42973       -0.44581
H          0.45472       -1.52291       -0.59330
H         -1.09545       -1.72961       -2.13191
H         -3.38538       -0.91314       -2.49509
H         -4.73270       -3.13280        0.91560
H         -2.42201       -3.97981        1.26718
H         -5.83662       -1.22080       -2.00526
H         -6.33390       -2.03316       -0.52564
H         -5.29932        0.97653       -2.05957
H         -6.06029        1.96871       -0.82026
H         -3.69809        2.58139       -0.92959
H         -3.18788        0.89713       -0.78109
H         -5.65767        2.93891        1.33270
H         -4.14349        3.81299        1.03946
H         -4.39388        2.97931        2.57948
H         -4.30827        0.61646        2.68969
H         -3.57647       -0.27939        1.35112
H         -6.46655        0.73877        1.51304
H         -5.95066       -0.94392        1.56255
H          6.70472       -1.86675        1.40482
H          6.98763       -2.25935       -0.30042
H          6.74683       -3.54921        0.87393
