68
MOLECULE0-opt-22-21-20-18-276.log	Energy: -992568.8893136
C          0.14404        4.54582       -0.39459
C         -1.17427        4.18305       -0.63675
C         -1.65717        2.98582       -0.10866
C         -0.76788        2.20350        0.63613
N          0.49623        2.54489        0.88192
C          0.93548        3.69840        0.37230
C         -3.05746        2.53174       -0.29435
C         -4.10435        3.42319       -0.53212
C         -5.37316        2.86565       -0.64629
N         -5.61550        1.56534       -0.53875
C         -4.53333        0.79796       -0.30844
N         -3.26966        1.21750       -0.18407
N         -4.77660       -0.53858       -0.19044
C         -3.78216       -1.51887        0.07581
C         -3.67848       -2.08061        1.35412
C         -2.68302       -3.03602        1.56445
C         -1.81452       -3.41888        0.55096
C         -1.91674       -2.83298       -0.71036
C         -2.91112       -1.88847       -0.94353
N         -1.03978       -3.19225       -1.76688
C          0.32726       -3.37551       -1.70798
C          1.09323       -2.64134       -0.65070
C          0.71199       -1.38671       -0.16528
C          1.51158       -0.72443        0.75570
C          2.70668       -1.28880        1.20672
C          3.07380       -2.54758        0.72806
C          2.28575       -3.21200       -0.20372
C          3.60752       -0.51215        2.15491
N          4.54273        0.43677        1.57309
C          3.99238        1.66202        1.00243
C          3.74635        1.58711       -0.51432
N          4.90647        1.11531       -1.26577
C          5.96516        2.10029       -1.39031
C          5.35285       -0.16600       -0.72523
C          5.63976       -0.11103        0.78446
O          0.88739       -4.07684       -2.53431
C         -4.59912       -1.64378        2.46245
H          0.55563        5.46466       -0.79812
H         -1.81068        4.81533       -1.24895
H         -1.11129        1.25930        1.05091
H          1.97219        3.94994        0.58511
H         -3.95605        4.49397       -0.59173
H         -6.24083        3.49779       -0.82542
H         -5.75307       -0.79314       -0.16884
H         -2.58334       -3.48992        2.54659
H         -1.04735       -4.16340        0.73679
H         -2.99424       -1.41270       -1.91522
H         -1.45092       -3.64170       -2.57522
H         -0.20202       -0.91542       -0.51300
H          1.22469        0.26361        1.10798
H          3.99707       -3.00576        1.07591
H          2.58697       -4.17424       -0.60530
H          2.97922        0.04611        2.85931
H          4.19509       -1.22359        2.74947
H          3.05626        1.90267        1.51823
H          4.70038        2.47895        1.21240
H          3.45782        2.57376       -0.89824
H          2.91624        0.90248       -0.71937
H          6.43865        2.41499       -0.44328
H          5.56180        2.99781       -1.87245
H          6.75305        1.69879       -2.03724
H          6.25169       -0.48468       -1.26732
H          4.56684       -0.90357       -0.92536
H          6.52923        0.51318        0.95851
H          5.87999       -1.11183        1.16114
H         -5.64433       -1.89708        2.24899
H         -4.55321       -0.55842        2.60225
H         -4.32809       -2.12265        3.40706
