68
MOLECULE0-opt-14-13-11-12-116.log	Energy: -992567.9200249
C         -8.54896       -3.37717       -0.59696
C         -7.21117       -3.04144       -0.75580
C         -6.72109       -1.89596       -0.12835
C         -7.62192       -1.14017        0.63128
N         -8.90563       -1.45242        0.79621
C         -9.35099       -2.55436        0.18724
C         -5.30564       -1.46700       -0.24063
C         -4.27304       -2.36455       -0.54354
C         -2.99882       -1.83073       -0.61727
N         -2.72323       -0.54295       -0.41063
C         -3.77510        0.22815       -0.11110
N         -5.05506       -0.17897       -0.02212
N         -3.61688        1.56414        0.13184
C         -2.48546        2.39413        0.17260
C         -2.70627        3.76079        0.44478
C         -1.59760        4.59677        0.49902
C         -0.29663        4.14751        0.29756
C         -0.10159        2.79527        0.02692
C         -1.19195        1.92299       -0.03532
N          1.16368        2.22506       -0.21524
C          2.40206        2.80023       -0.08578
C          3.54291        1.89479       -0.45614
C          3.44484        0.90717       -1.43919
C          4.54029        0.10516       -1.73710
C          5.74805        0.25545       -1.05412
C          5.84829        1.27381       -0.10294
C          4.76361        2.08885        0.19132
C          6.91611       -0.68453       -1.31500
N          6.98027       -1.91776       -0.54901
C          6.01753       -2.96507       -0.86808
C          4.74914       -2.93390        0.00193
N          5.03702       -2.89671        1.43275
C          5.48277       -4.16728        1.97640
C          5.93225       -1.78072        1.72754
C          7.21910       -1.80139        0.88509
O          2.59509        3.93884        0.30792
C         -4.09382        4.30619        0.67133
H         -8.96658       -4.25614       -1.07633
H         -6.56666       -3.65325       -1.38029
H         -7.26985       -0.24082        1.12825
H        -10.40377       -2.78627        0.33245
H         -4.44543       -3.42332       -0.68841
H         -2.14534       -2.46446       -0.84955
H         -4.50186        2.00662        0.32916
H         -1.75451        5.65186        0.70807
H          0.54477        4.82235        0.35531
H         -1.04609        0.87122       -0.24511
H          1.15183        1.23329       -0.40069
H          2.52560        0.78305       -2.00608
H          4.45495       -0.65245       -2.51279
H          6.79112        1.42643        0.41737
H          4.84303        2.88541        0.92386
H          6.91857       -0.96149       -2.37658
H          7.85138       -0.14080       -1.13148
H          5.75394       -2.89153       -1.92946
H          6.51825       -3.93563       -0.73463
H          4.12743       -3.81211       -0.21146
H          4.15833       -2.04236       -0.23924
H          6.43210       -4.55522        1.56650
H          4.71101       -4.92384        1.79636
H          5.60675       -4.06659        3.06003
H          6.18136       -1.80102        2.79537
H          5.38133       -0.85254        1.53541
H          7.83910       -2.65558        1.19585
H          7.81014       -0.89809        1.07391
H         -4.57996        3.85272        1.54569
H         -4.74869        4.14578       -0.19541
H         -4.05542        5.38359        0.84997
