%RWF=/scratch/bdw2292/Gau-MOLECULE0/,100GB
%Nosave
%Chk=MOLECULE0-opt-23-22-21-36-185.chk
%Mem=20GB
%Nproc=6
#P opt=(maxcycle=5,Loose) wB97XD/6-31G* MaxDisk=100GB

MOLECULE0 Rotatable Bond Optimization on node37.bme.utexas.edu

0 1
 C    0.495489    3.599239   -4.623417
 C    1.867737    3.345289   -4.497140
 C    2.308649    2.143813   -3.908513
 C    1.291144    1.244929   -3.504614
 N   -0.024500    1.470733   -3.612869
 C   -0.406893    2.634339   -4.161665
 C    3.761126    1.797773   -3.695706
 C    4.850532    2.553235   -4.160261
 C    6.119363    2.052336   -3.846549
 N    6.335107    0.941768   -3.145396
 C    5.233008    0.285314   -2.730012
 N    3.983482    0.676028   -2.985916
 N    5.471740   -0.859266   -1.991055
 C    4.618653   -1.875984   -1.427775
 C    5.187110   -3.121963   -1.022711
 C    4.314067   -4.086994   -0.493625
 C    2.934910   -3.898177   -0.349146
 C    2.389236   -2.668411   -0.732726
 C    3.241040   -1.683918   -1.259448
 N    1.001154   -2.312668   -0.667005
 C   -0.119891   -3.058738   -0.383131
 C   -1.497205   -2.470658   -0.651895
 C   -1.752724   -1.244048   -1.291292
 C   -3.062618   -0.788502   -1.461368
 C   -4.168640   -1.536644   -1.017929
 C   -3.904387   -2.777328   -0.407911
 C   -2.598533   -3.241740   -0.236986
 C   -5.596065   -0.998837   -1.136750
 N   -6.114357   -0.080975   -0.107226
 C   -5.649273    1.324690   -0.087773
 C   -4.439371    1.592457    0.845138
 N   -4.641481    1.125333    2.238195
 C   -5.396112    2.015077    3.128429
 C   -5.061911   -0.297405    2.209772
 C   -6.268630   -0.582912    1.278036
 O   -0.030140   -4.179399    0.097791
 C    6.667066   -3.443763   -1.148704
 H    0.133761    4.523018   -5.065189
 H    2.569272    4.101832   -4.840654
 H    1.548754    0.277812   -3.085454
 H   -1.482727    2.785393   -4.236485
 H    4.764665    3.465150   -4.738068
 H    7.030840    2.556490   -4.165778
 H    6.466778   -1.013245   -1.930804
 H    4.716322   -5.049877   -0.181304
 H    2.295303   -4.676995    0.045759
 H    2.828520   -0.730189   -1.542334
 H    0.814909   -1.361546   -0.946768
 H   -0.933728   -0.641747   -1.675891
 H   -3.219417    0.173950   -1.947971
 H   -4.729113   -3.387352   -0.040143
 H   -2.416483   -4.200552    0.242231
 H   -5.689841   -0.479800   -2.101009
 H   -6.284471   -1.855256   -1.164070
 H   -5.427662    1.705523   -1.196261
 H   -6.779186    2.142113    0.412216
 H   -4.174386    2.914748    0.866610
 H   -3.442447    1.037285    0.417358
 H   -6.434238    2.116784    2.792865
 H   -4.932620    3.008064    3.152214
 H   -5.392529    1.619584    4.150734
 H   -5.300234   -0.669189    3.348766
 H   -3.918544   -1.059728    1.743255
 H   -7.451597    0.102139    1.859593
 H   -6.524081   -1.743935    1.269556
 H    7.299464   -2.768488   -0.554634
 H    6.999510   -3.366148   -2.187671
 H    6.907925   -4.458060   -0.819815

36 21 22 23 F
20 21 22 23 F
36 21 22 27 F
20 21 22 27 F
12 11 13 14 F
10 11 13 14 F
19 18 20 21 F
17 18 20 21 F
24 25 28 29 F
26 25 28 29 F
25 28 29 35 F
25 28 29 30 F

