%RWF=/scratch/bdw2292/Gau-MOLECULE0/,100GB
%Nosave
%Chk=MOLECULE0-opt-29-28-25-24-097.chk
%Mem=20GB
%Nproc=6
#P opt=(maxcycle=5,Loose) wB97XD/6-31G* MaxDisk=100GB

MOLECULE0 Rotatable Bond Optimization on node37.bme.utexas.edu

0 1
 C   -5.960426   -8.535132   -0.731649
 C   -4.916305   -9.452170   -0.916286
 C   -3.577610   -9.017795   -0.846795
 C   -3.393018   -7.642105   -0.559827
 N   -4.374950   -6.750873   -0.373526
 C   -5.635967   -7.199577   -0.466864
 C   -2.390895   -9.931450   -1.034496
 C   -2.445036  -11.323058   -1.211810
 C   -1.207555  -11.968262   -1.320323
 N   -0.029466  -11.351348   -1.280694
 C   -0.073081  -10.010333   -1.136153
 N   -1.199907   -9.303188   -1.015873
 N    1.155861   -9.367354   -1.108170
 C    1.543792   -7.992214   -0.906856
 C    2.891980   -7.684703   -0.551382
 C    3.206200   -6.331411   -0.338106
 C    2.284241   -5.285495   -0.464826
 C    0.977203   -5.599348   -0.850978
 C    0.629859   -6.942908   -1.062762
 N   -0.091803   -4.666468   -1.038348
 C   -0.186032   -3.324498   -0.755167
 C   -1.560059   -2.689113   -0.850295
 C   -2.745808   -3.364736   -0.515112
 C   -3.983138   -2.734638   -0.659292
 C   -4.081016   -1.400188   -1.096370
 C   -2.884875   -0.731827   -1.419346
 C   -1.643004   -1.358148   -1.291461
 C   -5.439333   -0.718051   -1.262180
 N   -5.942950    0.123328   -0.162720
 C   -5.367676    1.469885    0.047524
 C   -4.266064    1.533613    1.136580
 N   -4.657285    0.950315    2.440664
 C   -5.448071    1.808105    3.331402
 C   -5.174256   -0.421399    2.217129
 C   -6.275594   -0.517079    1.129487
 O    0.787153   -2.645530   -0.467346
 C    3.967969   -8.739932   -0.361107
 H   -6.999399   -8.846276   -0.789567
 H   -5.171628  -10.487781   -1.127020
 H   -2.389899   -7.244907   -0.447420
 H   -6.417474   -6.457041   -0.313758
 H   -3.362978  -11.897710   -1.233456
 H   -1.162282  -13.050426   -1.440932
 H    1.896926  -10.050335   -1.157646
 H    4.220282   -6.061279   -0.045895
 H    2.566631   -4.255285   -0.285360
 H   -0.376688   -7.192493   -1.357809
 H   -0.948533   -5.081565   -1.376949
 H   -2.702847   -4.392374   -0.161719
 H   -4.882454   -3.296640   -0.408094
 H   -2.915569    0.297129   -1.777166
 H   -0.723745   -0.832737   -1.538539
 H   -5.412678   -0.091003   -2.165094
 H   -6.204928   -1.487308   -1.438908
 H   -5.063684    1.890873   -0.857945
 H   -6.536270    2.378807    0.591216
 H   -3.911794    2.943530    1.337908
 H   -3.187426    0.891865    0.719903
 H   -6.431468    2.024674    2.899167
 H   -4.923767    2.753755    3.509101
 H   -5.590195    1.316216    4.300561
 H   -5.501539   -0.849474    3.169644
 H   -3.987425   -1.263623    1.718602
 H   -7.509278    0.241448    1.712765
 H   -6.602261   -1.610731    0.963913
 H    4.181431   -9.267973   -1.301109
 H    3.667307   -9.493455    0.380599
 H    4.921754   -8.320794   -0.012058

24 25 28 29 F
26 25 28 29 F
12 11 13 14 F
10 11 13 14 F
19 18 20 21 F
17 18 20 21 F
36 21 22 23 F
20 21 22 23 F
36 21 22 27 F
20 21 22 27 F
25 28 29 35 F
25 28 29 30 F

