68
MOLECULE0-opt-21-20-18-19-226.log	Energy: -992571.3957559
C         -0.47398        4.27485       -0.77206
C          0.87053        4.19231       -0.43066
C          1.54706        2.99034       -0.63160
C          0.82073        1.92615       -1.18252
N         -0.46820        1.98976       -1.51174
C         -1.09721        3.14981       -1.30092
C          2.96891        2.78934       -0.25381
C          3.89984        3.81938       -0.15466
C          5.18578        3.44697        0.23539
N          5.54519        2.19770        0.49691
C          4.57183        1.27519        0.35479
N          3.31179        1.52374       -0.00179
N          4.96065       -0.01073        0.61364
C          4.24510       -1.21692        0.49484
C          4.96902       -2.42650        0.47965
C          4.24855       -3.60941        0.33814
C          2.86280       -3.65081        0.19528
C          2.17138       -2.44335        0.21723
C          2.85954       -1.24334        0.39402
N          0.78485       -2.30549        0.03941
C         -0.15514       -3.23273       -0.33093
C         -1.47461       -2.60129       -0.67522
C         -1.54971       -1.35839       -1.31088
C         -2.78202       -0.77902       -1.57453
C         -3.96541       -1.41009       -1.19128
C         -3.88375       -2.67750       -0.60765
C         -2.65366       -3.27451       -0.35752
C         -5.30241       -0.70426       -1.34833
N         -5.69240        0.22611       -0.29972
C         -5.02522        1.52267       -0.24774
C         -3.81534        1.57752        0.70285
N         -4.11286        1.06885        2.03894
C         -4.90154        1.97818        2.85115
C         -4.67924       -0.27446        1.94006
C         -5.91430       -0.33995        1.02625
O          0.03689       -4.43658       -0.36459
C          6.47180       -2.44210        0.59931
H         -1.03347        5.19149       -0.61947
H          1.37552        5.04550        0.01311
H          1.32496        0.98082       -1.36634
H         -2.15214        3.17654       -1.56541
H          3.66081        4.85112       -0.38076
H          5.96728        4.19719        0.33821
H          5.94189       -0.07673        0.83950
H          4.79689       -4.54803        0.32479
H          2.33397       -4.58492        0.06436
H          2.31438       -0.31204        0.41963
H          0.44621       -1.35909        0.13081
H         -0.65325       -0.83348       -1.62786
H         -2.80989        0.19035       -2.06561
H         -4.79849       -3.19725       -0.33114
H         -2.58999       -4.25701        0.09952
H         -5.30814       -0.14914       -2.29418
H         -6.09480       -1.46006       -1.42264
H         -4.72335        1.80388       -1.26378
H         -5.76645        2.26801        0.07810
H         -3.45781        2.61134        0.79232
H         -2.99060        0.98208        0.29578
H         -5.91157        2.20589        2.46708
H         -4.36369        2.92748        2.95122
H         -5.01733        1.55139        3.85340
H         -4.93788       -0.62289        2.94736
H         -3.89749       -0.93812        1.55263
H         -6.74293        0.20874        1.49820
H         -6.24831       -1.37768        0.91541
H          6.81722       -2.03082        1.55771
H          6.95199       -1.86531       -0.20184
H          6.85223       -3.46465        0.53519
