%RWF=/scratch/bdw2292/Gau-MOLECULE0/,100GB
%Nosave
%Chk=MOLECULE0-opt-21-20-18-19-310.chk
%Mem=20GB
%Nproc=6
#P opt=(,maxcycle=400) wB97XD/6-31G* MaxDisk=100GB

MOLECULE0 Rotatable Bond Optimization on g2-node38.bme.utexas.edu

0 1
 C   -2.085307   -6.374412    5.073690
 C   -0.726577   -6.714366    5.027181
 C    0.140805   -6.044529    4.139845
 C   -0.458957   -5.047336    3.330060
 N   -1.756559   -4.713294    3.357142
 C   -2.547535   -5.369135    4.218026
 C    1.613859   -6.358553    4.026209
 C    2.284739   -7.357268    4.752280
 C    3.648819   -7.497688    4.476292
 N    4.320057   -6.757712    3.599171
 C    3.599638   -5.815563    2.953755
 N    2.294873   -5.601148    3.143950
 N    4.319003   -5.049221    2.046752
 C    3.983555   -3.920068    1.217676
 C    5.029607   -3.116519    0.670967
 C    4.644926   -2.032074   -0.135392
 C    3.314814   -1.695737   -0.417361
 C    2.302222   -2.490720    0.131159
 C    2.656826   -3.590201    0.925046
 N    0.907751   -2.252846   -0.024720
 C   -0.121667   -3.095512   -0.377180
 C   -1.468939   -2.479649   -0.694035
 C   -1.626487   -1.233924   -1.322105
 C   -2.902654   -0.712799   -1.547237
 C   -4.060578   -1.421312   -1.174503
 C   -3.887917   -2.679389   -0.566716
 C   -2.616089   -3.206039   -0.332819
 C   -5.454765   -0.824715   -1.370077
 N   -5.985883    0.098460   -0.351739
 C   -5.464057    1.481004   -0.289011
 C   -4.312105    1.680446    0.729214
 N   -4.629432    1.219005    2.100953
 C   -5.398244    2.140171    2.946253
 C   -5.116825   -0.181389    2.041471
 C   -6.251208   -0.419557    1.010147
 O    0.010993   -4.307176   -0.406669
 C    6.504952   -3.381409    0.917706
 H   -2.769028   -6.875389    5.752771
 H   -0.373505   -7.496942    5.694262
 H    0.140002   -4.492281    2.618167
 H   -3.595559   -5.073469    4.218916
 H    1.807940   -8.006941    5.475939
 H    4.237366   -8.255505    4.992903
 H    5.289891   -5.322691    2.069485
 H    5.416765   -1.396197   -0.567929
 H    3.071387   -0.836482   -1.030469
 H    1.873734   -4.212391    1.326852
 H    0.663221   -1.277697    0.078075
 H   -0.746655   -0.672158   -1.625670
 H   -2.993412    0.266352   -2.018046
 H   -4.755929   -3.254985   -0.246485
 H   -2.490660   -4.167236    0.159632
 H   -5.474996   -0.299296   -2.335778
 H   -6.179343   -1.646935   -1.460199
 H   -5.228172    1.835682   -1.246249
 H   -6.647232    2.386909    0.240756
 H   -4.023986    3.161166    0.780196
 H   -3.355964    1.146901    0.388554
 H   -6.408944    2.288069    2.549671
 H   -4.894246    3.111598    3.002678
 H   -5.474198    1.742841    3.965040
 H   -5.402056   -0.512524    3.042540
 H   -3.935639   -1.034852    1.605377
 H   -7.495998    0.375506    1.570367
 H   -6.550432   -1.506033    0.967115
 H    6.814221   -4.345606    0.489830
 H    6.736499   -3.406796    1.991941
 H    7.158569   -2.617040    0.475279

19 18 20 21 F
17 18 20 21 F
14 13 11 12 F
14 13 11 10 F
15 14 13 11 F
19 14 13 11 F
22 21 20 18 F
36 21 20 18 F
20 21 22 23 F
36 21 22 23 F
36 21 22 27 F
20 21 22 27 F
29 28 25 24 F
29 28 25 26 F
25 28 29 35 F
25 28 29 30 F

