%RWF=/scratch/bdw2292/Gau-MOLECULE0/,100GB
%Nosave
%Chk=MOLECULE0-opt-23-22-21-36-215.chk
%Mem=20GB
%Nproc=6
#P opt=(maxcycle=5,Loose) wB97XD/6-31G* MaxDisk=100GB

MOLECULE0 Rotatable Bond Optimization on node37.bme.utexas.edu

0 1
 C   -0.269598    4.477493   -1.133665
 C    1.064113    4.381573   -0.714037
 C    1.682110    3.119261   -0.621873
 C    0.886272    2.013014   -1.009587
 N   -0.387074    2.084412   -1.419498
 C   -0.950528    3.301529   -1.468588
 C    3.100289    2.910205   -0.151989
 C    4.040868    3.927841    0.076836
 C    5.310553    3.503398    0.488027
 N    5.651635    2.230876    0.682685
 C    4.680920    1.321846    0.460492
 N    3.447477    1.626769    0.053616
 N    5.034643    0.001547    0.685955
 C    4.341740   -1.250913    0.504479
 C    5.077549   -2.474475    0.485047
 C    4.351686   -3.661151    0.281897
 C    2.964584   -3.709731    0.095746
 C    2.251320   -2.507833    0.142536
 C    2.951717   -1.309115    0.347549
 N    0.840127   -2.359194   -0.031489
 C   -0.141622   -3.242437   -0.417545
 C   -1.489873   -2.630802   -0.751632
 C   -1.622259   -1.384385   -1.387781
 C   -2.884794   -0.832818   -1.608770
 C   -4.056934   -1.500126   -1.208798
 C   -3.912345   -2.777786   -0.632813
 C   -2.652849   -3.348690   -0.430119
 C   -5.422982   -0.825412   -1.343116
 N   -5.865054    0.107549   -0.290873
 C   -5.260037    1.458494   -0.221018
 C   -4.048616    1.580168    0.740563
 N   -4.321209    1.089469    2.113405
 C   -5.008430    2.018065    3.018027
 C   -4.876751   -0.283738    2.028652
 C   -6.092820   -0.418007    1.074954
 O    0.034425   -4.449205   -0.475820
 C    6.585900   -2.539523    0.655131
 H   -0.769797    5.439059   -1.198661
 H    1.589990    5.292442   -0.438361
 H    1.305523    1.011614   -1.013905
 H   -1.987657    3.323350   -1.800071
 H    3.849019    4.984108   -0.067420
 H    6.117860    4.210259    0.677904
 H    6.006956   -0.044324    0.951097
 H    4.886175   -4.609937    0.255129
 H    2.443554   -4.643139   -0.078854
 H    2.400450   -0.385339    0.399458
 H    0.514712   -1.409838    0.085707
 H   -0.736252   -0.828772   -1.684893
 H   -2.945850    0.156985   -2.060893
 H   -4.795454   -3.329590   -0.312024
 H   -2.551594   -4.332226    0.021591
 H   -5.446919   -0.270977   -2.291855
 H   -6.190254   -1.609320   -1.412044
 H   -4.996861    1.834541   -1.269999
 H   -6.326915    2.380453    0.296507
 H   -3.657683    2.879845    0.812639
 H   -3.085886    0.940685    0.307707
 H   -6.025930    2.225555    2.668131
 H   -4.456491    2.962965    3.081672
 H   -5.061536    1.592726    4.026868
 H   -5.190263   -0.683148    3.208707
 H   -3.811898   -1.134083    1.559193
 H   -7.201195    0.357808    1.657734
 H   -6.466381   -1.556144    1.025402
 H    6.918194   -2.161988    1.632723
 H    7.094070   -1.945769   -0.109905
 H    6.976360   -3.556968    0.569930

36 21 22 23 F
20 21 22 23 F
36 21 22 27 F
20 21 22 27 F
12 11 13 14 F
10 11 13 14 F
19 18 20 21 F
17 18 20 21 F
24 25 28 29 F
26 25 28 29 F
25 28 29 35 F
25 28 29 30 F

