68
MOLECULE0-opt-2-3-7-8-199.log	Energy: -992574.0090316
C         -0.64582        2.62320        0.53367
C          0.69510        2.26712        0.51002
C          1.61987        3.13910       -0.07229
C          1.13158        4.32619       -0.62465
N         -0.15199        4.68330       -0.61297
C         -1.01072        3.84166       -0.03475
C          3.06208        2.79882       -0.11265
C          4.06362        3.76556       -0.16807
C          5.37326        3.29521       -0.20491
N          5.69022        2.00834       -0.17999
C          4.64751        1.15651       -0.11046
N          3.35752        1.49374       -0.08097
N          5.01430       -0.16159       -0.06621
C          4.25062       -1.33559        0.02618
C          4.92842       -2.53005        0.34671
C          4.17810       -3.69739        0.43487
C          2.80235       -3.73513        0.22794
C          2.15467       -2.54483       -0.09205
C          2.87746       -1.35560       -0.20164
N          0.77051       -2.44659       -0.33603
C         -0.21450       -3.35636       -0.04824
C         -1.59875       -2.86210       -0.36055
C         -1.87977       -2.01437       -1.43537
C         -3.17629       -1.56307       -1.64863
C         -4.21282       -1.92355       -0.78602
C         -3.93109       -2.81275        0.25358
C         -2.64181       -3.28497        0.46282
C         -5.60277       -1.32631       -0.93961
N         -5.84711       -0.03528       -0.31649
C         -5.33454        1.15719       -0.97933
C         -3.95621        1.61667       -0.47688
N         -3.88470        1.74125        0.97897
C         -4.56790        2.91471        1.50065
C         -4.31787        0.48844        1.60094
C         -5.71151        0.03503        1.13304
O         -0.01783       -4.45390        0.44571
C          6.41559       -2.54614        0.59363
H         -1.41482        1.99722        0.97947
H          1.04400        1.33556        0.94545
H          1.80766        5.01685       -1.12519
H         -2.05169        4.15726       -0.02329
H          3.84934        4.82664       -0.15721
H          6.20861        3.99116       -0.24977
H          6.01743       -0.26968       -0.05932
H          4.68927       -4.62376        0.68415
H          2.24513       -4.65569        0.32498
H          2.37436       -0.42990       -0.44632
H          0.45476       -1.52307       -0.59370
H         -1.09539       -1.72946       -2.13202
H         -3.38526       -0.91289       -2.49519
H         -4.73275       -3.13273        0.91531
H         -2.42210       -3.97982        1.26691
H         -5.83645       -1.22046       -2.00550
H         -6.33390       -2.03301       -0.52605
H         -5.29916        0.97684       -2.05951
H         -6.06007        1.96894       -0.82010
H         -3.69779        2.58140       -0.92926
H         -3.18778        0.89706       -0.78082
H         -5.65763        2.93882        1.33300
H         -4.14343        3.81285        1.03971
H         -4.39380        2.97918        2.57975
H         -4.30856        0.61622        2.68982
H         -3.57669       -0.27961        1.35125
H         -6.46674        0.73877        1.51293
H         -5.95098       -0.94396        1.56235
H          6.70428       -1.86650        1.40555
H          6.98770       -2.25925       -0.29956
H          6.74669       -3.54903        0.87476
