68
MOLECULE0-opt-21-20-18-19-282.log	Energy: -992567.8048141
C          0.19616        4.25488       -0.75209
C         -1.17334        4.06910       -0.61286
C         -1.65098        2.83604       -0.16996
C         -0.70364        1.84021        0.10753
N          0.61155        2.00715       -0.01737
C          1.04353        3.19654       -0.44228
C         -3.09845        2.54108       -0.01429
C         -4.08933        3.52090        0.04378
C         -5.39874        3.06488        0.16916
N         -5.73226        1.78156        0.23482
C         -4.69786        0.92051        0.18194
N         -3.41255        1.24705        0.06774
N         -5.04662       -0.40282        0.26272
C         -4.21208       -1.53523        0.30379
C         -4.67755       -2.68688        0.96524
C         -3.82287       -3.78481        1.02960
C         -2.54403       -3.76063        0.48583
C         -2.10718       -2.61432       -0.17551
C         -2.95577       -1.51805       -0.29789
N         -0.76983       -2.56220       -0.63471
C         -0.23956       -1.64799       -1.51261
C          1.25988       -1.56821       -1.54515
C          2.12810       -2.56343       -1.08989
C          3.49926       -2.33709       -1.06322
C          4.03341       -1.11658       -1.48059
C          3.16395       -0.15684       -2.00039
C          1.79546       -0.37417       -2.02987
C          5.51105       -0.80593       -1.31044
N          5.91631       -0.17710       -0.06404
C          5.91202       -1.00045        1.13945
C          4.61880       -0.89240        1.96548
N          4.24887        0.48634        2.26799
C          5.06831        1.10701        3.29234
C          4.15916        1.25626        1.02994
C          5.44501        1.18177        0.18652
O         -0.92167       -0.89595       -2.18989
C         -6.04537       -2.72865        1.59650
H          0.60029        5.19851       -1.10319
H         -1.85853        4.87117       -0.87110
H         -1.04110        0.86599        0.44743
H          2.12204        3.30332       -0.54276
H         -3.87282        4.58112        0.00830
H         -6.22356        3.77300        0.22048
H         -6.03307       -0.53714        0.42596
H         -4.16328       -4.68317        1.53792
H         -1.89353       -4.62646        0.57572
H         -2.62436       -0.64649       -0.83322
H         -0.11671       -3.09560       -0.08234
H          1.75431       -3.53356       -0.77049
H          4.16497       -3.11561       -0.69746
H          3.56432        0.78770       -2.36165
H          1.11339        0.38199       -2.40020
H          6.08960       -1.73242       -1.41100
H          5.82948       -0.14495       -2.12663
H          6.09616       -2.04335        0.85649
H          6.76213       -0.68940        1.76535
H          4.72961       -1.44341        2.90767
H          3.78689       -1.34342        1.41187
H          6.13678        1.23247        3.04161
H          5.01209        0.50752        4.20782
H          4.66266        2.09940        3.51769
H          3.94187        2.30181        1.28245
H          3.30184        0.87662        0.46233
H          6.24768        1.72427        0.70856
H          5.29939        1.68701       -0.77518
H         -6.84690       -2.62548        0.85233
H         -6.17491       -1.92813        2.33540
H         -6.20586       -3.68095        2.10855
