68
MOLECULE0-opt-15-14-13-11-275.log	Energy: -992566.5947186
C         -7.80341        2.47500       -2.16568
C         -7.43196        2.20401       -0.85581
C         -6.22136        1.55402       -0.61431
C         -5.44535        1.19958       -1.72574
N         -5.78855        1.45639       -2.98698
C         -6.94913        2.08393       -3.19158
C         -5.74814        1.22298        0.75212
C         -6.23902        1.84961        1.89850
C         -5.70713        1.42385        3.11049
N         -4.78232        0.47740        3.21598
C         -4.37092       -0.05008        2.04781
N         -4.80313        0.28197        0.83009
N         -3.41944       -1.02612        2.15066
C         -2.71844       -1.61717        1.06667
C         -3.37152       -2.42926        0.12837
C         -2.58405       -2.98969       -0.87723
C         -1.21046       -2.80008       -0.96442
C         -0.57512       -2.00957       -0.00485
C         -1.34249       -1.41708        0.99901
N          0.81248       -1.76763        0.01778
C          1.77336       -2.21799       -0.85244
C          3.17775       -1.82065       -0.49466
C          3.60568       -1.59394        0.81568
C          4.92828       -1.25097        1.07153
C          5.84982       -1.11525        0.03255
C          5.42059       -1.37868       -1.27078
C          4.10416       -1.72949       -1.53459
C          7.28232       -0.68038        0.30750
N          7.57873        0.74164        0.30543
C          7.08366        1.53851        1.42150
C          5.72438        2.20690        1.15455
N          5.69612        2.96559       -0.09275
C          6.40945        4.22910       -0.02770
C          6.11111        2.10997       -1.20151
C          7.47804        1.44459       -0.96856
O          1.53736       -2.87999       -1.84965
C         -4.84706       -2.70877        0.19545
H         -8.74102        2.97267       -2.38966
H         -8.09059        2.47857       -0.03712
H         -4.50102        0.68533       -1.57040
H         -7.20833        2.27944       -4.22991
H         -6.97662        2.64110        1.86269
H         -6.04028        1.86975        4.04576
H         -3.02126       -1.10844        3.07467
H         -3.06497       -3.62001       -1.62080
H         -0.63378       -3.25699       -1.75547
H         -0.87186       -0.77489        1.74087
H          1.12071       -1.11272        0.72034
H          2.92445       -1.72772        1.65233
H          5.25118       -1.09120        2.09774
H          6.13152       -1.30725       -2.09075
H          3.77318       -1.94571       -2.54498
H          7.58985       -1.07441        1.28407
H          7.93718       -1.14842       -0.43836
H          7.02825        0.90360        2.31339
H          7.83011        2.31773        1.63672
H          5.46685        2.87893        1.98231
H          4.94200        1.44104        1.09417
H          7.49547        4.15279        0.15595
H          5.97968        4.84162        0.77238
H          6.26971        4.76540       -0.97246
H          6.13630        2.70887       -2.11994
H          5.34198        1.33969       -1.33225
H          8.26178        2.21613       -0.99203
H          7.70407        0.74258       -1.77915
H         -5.41704       -1.89150       -0.25854
H         -5.18380       -2.80142        1.23309
H         -5.08800       -3.63724       -0.33022
