68
MOLECULE0-opt-23-22-21-20-006.log	Energy: -992571.3959316
C         -0.47337        4.27530       -0.77102
C          0.87121        4.19252       -0.42993
C          1.54756        2.99053       -0.63134
C          0.82103        1.92661       -1.18250
N         -0.46797        1.99046       -1.51143
C         -1.09684        3.15047       -1.30008
C          2.96947        2.78924       -0.25385
C          3.90062        3.81910       -0.15482
C          5.18656        3.44643        0.23496
N          5.54577        2.19710        0.49640
C          4.57221        1.27478        0.35447
N          3.31215        1.52357       -0.00192
N          4.96085       -0.01122        0.61318
C          4.24505       -1.21727        0.49467
C          4.96873       -2.42702        0.47988
C          4.24805       -3.60982        0.33863
C          2.86230       -3.65100        0.19569
C          2.17113       -2.44340        0.21723
C          2.85951       -1.24346        0.39367
N          0.78460       -2.30532        0.03938
C         -0.15546       -3.23240       -0.33113
C         -1.47484       -2.60084       -0.67546
C         -1.54988       -1.35771       -1.31070
C         -2.78217       -0.77833       -1.57445
C         -3.96561       -1.40961       -1.19172
C         -3.88400       -2.67721       -0.60852
C         -2.65393       -3.27422       -0.35829
C         -5.30259       -0.70374       -1.34869
N         -5.69271        0.22620       -0.29976
C         -5.02585        1.52292       -0.24738
C         -3.81582        1.57776        0.70301
N         -4.11299        1.06854        2.03897
C         -4.90178        1.97740        2.85162
C         -4.67909       -0.27487        1.93971
C         -5.91427       -0.34036        1.02606
O          0.03642       -4.43627       -0.36488
C          6.47150       -2.44292        0.59970
H         -1.03275        5.19194       -0.61802
H          1.37637        5.04552        0.01401
H          1.32512        0.98131       -1.36679
H         -2.15184        3.17737       -1.56427
H          3.66174        4.85089       -0.38084
H          5.96822        4.19650        0.33766
H          5.94214       -0.07741        0.83881
H          4.79622       -4.54854        0.32558
H          2.33331       -4.58504        0.06498
H          2.31453       -0.31205        0.41895
H          0.44608       -1.35890        0.13090
H         -0.65343       -0.83255       -1.62732
H         -2.80997        0.19119       -2.06524
H         -4.79877       -3.19713       -0.33244
H         -2.59032       -4.25687        0.09843
H         -5.30824       -0.14826       -2.29434
H         -6.09496       -1.45953       -1.42335
H         -4.72429        1.80465       -1.26339
H         -5.76722        2.26792        0.07894
H         -3.45868        2.61165        0.79281
H         -2.99093        0.98277        0.29561
H         -5.91189        2.20507        2.46774
H         -4.36409        2.92677        2.95201
H         -5.01738        1.55021        3.85372
H         -4.93752       -0.62370        2.94693
H         -3.89718       -0.93829        1.55193
H         -6.74292        0.20797        1.49830
H         -6.24802       -1.37815        0.91495
H          6.81692       -2.03119        1.55791
H          6.95194       -1.86672       -0.20173
H          6.85167       -3.46560        0.53620
