68
MOLECULE0-opt-15-14-13-11-139.log	Energy: -992571.3958688
C         -0.47365        4.27505       -0.77163
C          0.87090        4.19241       -0.43041
C          1.54740        2.99047       -0.63167
C          0.82099        1.92643       -1.18277
N         -0.46800        1.99013       -1.51180
C         -1.09698        3.15012       -1.30061
C          2.96924        2.78934       -0.25385
C          3.90011        3.81937       -0.15388
C          5.18597        3.44680        0.23625
N          5.54538        2.19742        0.49721
C          4.57212        1.27493        0.35432
N          3.31218        1.52361       -0.00259
N          4.96096       -0.01111        0.61247
C          4.24515       -1.21719        0.49425
C          4.96884       -2.42692        0.47972
C          4.24817       -3.60976        0.33869
C          2.86243       -3.65099        0.19571
C          2.17125       -2.44339        0.21700
C          2.85961       -1.24343        0.39323
N          0.78474       -2.30531        0.03904
C         -0.15542       -3.23248       -0.33092
C         -1.47478       -2.60093       -0.67537
C         -1.54985       -1.35793       -1.31083
C         -2.78214       -0.77854       -1.57450
C         -3.96556       -1.40969       -1.19147
C         -3.88393       -2.67718       -0.60803
C         -2.65385       -3.27421       -0.35787
C         -5.30257       -0.70388       -1.34846
N         -5.69265        0.22620       -0.29963
C         -5.02560        1.52282       -0.24743
C         -3.81556        1.57758        0.70295
N         -4.11278        1.06854        2.03896
C         -4.90136        1.97759        2.85161
C         -4.67909       -0.27478        1.93985
C         -5.91429       -0.34017        1.02622
O          0.03638       -4.43638       -0.36421
C          6.47161       -2.44276        0.59955
H         -1.03308        5.19169       -0.61880
H          1.37596        5.04549        0.01348
H          1.32514        0.98116       -1.36702
H         -2.15195        3.17690       -1.56492
H          3.66107        4.85123       -0.37940
H          5.96741        4.19700        0.33965
H          5.94205       -0.07718        0.83900
H          4.79636       -4.54847        0.32583
H          2.33345       -4.58507        0.06516
H          2.31464       -0.31200        0.41824
H          0.44636       -1.35878        0.12994
H         -0.65338       -0.83292       -1.62767
H         -2.80999        0.19092       -2.06542
H         -4.79868       -3.19699       -0.33167
H         -2.59018       -4.25678        0.09902
H         -5.30831       -0.14852       -2.29418
H         -6.09492       -1.45969       -1.42296
H         -4.72402        1.80437       -1.26347
H         -5.76681        2.26793        0.07877
H         -3.45812        2.61155        0.79262
H         -2.99081        0.98237        0.29560
H         -5.91146        2.20536        2.46779
H         -4.36350        2.92687        2.95187
H         -5.01691        1.55047        3.85374
H         -4.93753       -0.62350        2.94711
H         -3.89739       -0.93825        1.55215
H         -6.74294        0.20837        1.49846
H         -6.24822       -1.37791        0.91521
H          6.81699       -2.03113        1.55781
H          6.95199       -1.86639       -0.20179
H          6.85184       -3.46540        0.53594
