%RWF=/scratch/bdw2292/Gau-MOLECULE0/,100GB
%Nosave
%Chk=MOLECULE0-opt-29-28-25-24-217.chk
%Mem=20GB
%Nproc=6
#P opt=(,maxcycle=400) wB97XD/6-31G* MaxDisk=100GB

MOLECULE0 Rotatable Bond Optimization on g2-node38.bme.utexas.edu

0 1
 C   -1.071970    0.954834   -7.304838
 C    0.318477    0.841634   -7.443425
 C    1.053705    0.048656   -6.539912
 C    0.292158   -0.613057   -5.544698
 N   -1.035763   -0.524221   -5.398794
 C   -1.697974    0.255930   -6.266333
 C    2.550134   -0.133953   -6.612346
 C    3.391219    0.375385   -7.614232
 C    4.743686    0.033539   -7.500963
 N    5.254487   -0.708058   -6.521852
 C    4.378043   -1.131617   -5.587105
 N    3.069093   -0.865886   -5.607844
 N    4.917885   -1.889844   -4.558153
 C    4.339203   -2.580131   -3.430337
 C    5.101504   -3.576453   -2.748362
 C    4.478598   -4.238082   -1.676089
 C    3.175294   -3.968414   -1.241830
 C    2.454415   -2.964722   -1.896800
 C    3.044105   -2.294900   -2.980575
 N    1.119358   -2.550240   -1.587830
 C    0.178587   -3.080813   -0.737045
 C   -1.236311   -2.545806   -0.845904
 C   -1.823333   -2.160216   -2.061683
 C   -3.120845   -1.645187   -2.088265
 C   -3.896286   -1.509951   -0.916874
 C   -3.295633   -1.922299    0.286466
 C   -1.997764   -2.437774    0.328008
 C   -5.295177   -0.891736   -1.026625
 N   -5.945669    0.003584   -0.049670
 C   -5.475248    1.408787    0.001804
 C   -4.500411    1.784325    1.144287
 N   -4.986934    1.394964    2.488856
 C   -5.948430    2.299019    3.130845
 C   -5.324202   -0.045841    2.463267
 C   -6.294952   -0.445854    1.319372
 O    0.452684   -3.931763    0.094739
 C    6.513810   -3.969050   -3.146967
 H   -1.657256    1.566719   -7.984821
 H    0.801552    1.387955   -8.249751
 H    0.783510   -1.276737   -4.841755
 H   -2.776275    0.313563   -6.126129
 H    3.047356    0.967783   -8.453236
 H    5.459571    0.372896   -8.248963
 H    5.904226   -2.026612   -4.721291
 H    5.022626   -5.017575   -1.144044
 H    2.729975   -4.505917   -0.413384
 H    2.492856   -1.523261   -3.493060
 H    0.787234   -1.773400   -2.142263
 H   -1.256407   -2.244486   -2.986165
 H   -3.524297   -1.338707   -3.053774
 H   -3.853370   -1.903699    1.215265
 H   -1.556143   -2.765449    1.266055
 H   -5.309530   -0.319729   -1.966785
 H   -5.986154   -1.743461   -1.123705
 H   -4.787311    1.774437   -1.304967
 H   -6.704945    2.303028    0.159767
 H   -4.235083    2.774663    1.139769
 H   -3.179202    0.928023    0.869743
 H   -6.892258    2.329627    2.574997
 H   -5.535826    3.313312    3.180271
 H   -6.151182    1.968550    4.155803
 H   -6.043871   -0.397403    3.775796
 H   -4.540106   -0.511257    2.459190
 H   -7.664923    0.346612    1.688480
 H   -6.543643   -1.490975    1.327325
 H    7.215778   -3.134897   -3.007526
 H    6.565476   -4.271765   -4.202276
 H    6.905780   -4.812227   -2.561562

29 28 25 24 F
29 28 25 26 F
14 13 11 12 F
14 13 11 10 F
15 14 13 11 F
19 14 13 11 F
19 18 20 21 F
17 18 20 21 F
22 21 20 18 F
36 21 20 18 F
20 21 22 23 F
36 21 22 23 F
36 21 22 27 F
20 21 22 27 F
25 28 29 35 F
25 28 29 30 F

