68
MOLECULE0-opt-23-22-21-36-051.log	Energy: -992569.4976904
C         -2.24418        4.98698       -0.02116
C         -3.38217        4.19509        0.04919
C         -3.24600        2.82814        0.29223
C         -1.94725        2.32516        0.44424
N         -0.84748        3.07537        0.38086
C         -1.00475        4.38105        0.15166
C         -4.41229        1.91291        0.37343
C         -5.71349        2.36042        0.60150
C         -6.70611        1.38634        0.63198
N         -6.46964        0.09153        0.47011
C         -5.17601       -0.23643        0.27782
N         -4.15037        0.61082        0.21906
N         -4.96430       -1.58429        0.14213
C         -3.77605       -2.32089        0.01296
C         -3.82333       -3.69255        0.33083
C         -2.64501       -4.42403        0.21382
C         -1.45037       -3.84258       -0.18759
C         -1.42494       -2.48431       -0.50528
C         -2.59297       -1.72753       -0.42799
N         -0.18502       -1.91453       -0.86257
C          0.07203       -0.62356       -1.25537
C          1.52781       -0.28303       -1.37278
C          2.48744       -1.17832       -1.84888
C          3.81973       -0.79066       -1.93590
C          4.22345        0.48283       -1.53164
C          3.24823        1.37822       -1.08517
C          1.91134        1.00983       -1.00925
C          5.69278        0.87806       -1.54948
N          6.49238        0.58585       -0.37167
C          6.82697       -0.80879       -0.11027
C          5.84885       -1.51714        0.84254
N          5.62883       -0.78374        2.08577
C          6.74017       -0.86194        3.01738
C          5.20570        0.58199        1.78427
C          6.17824        1.32046        0.84854
O         -0.79037        0.21277       -1.46656
C         -5.09776       -4.35058        0.79452
H         -2.31446        6.05188       -0.21582
H         -4.36056        4.63917       -0.10840
H         -1.80198        1.26437        0.61323
H         -0.09143        4.96988        0.09881
H         -5.95427        3.40282        0.76618
H         -7.74553        1.66177        0.79988
H         -5.81872       -2.10797        0.25845
H         -2.66075       -5.48354        0.45614
H         -0.54573       -4.44200       -0.25072
H         -2.57460       -0.68390       -0.68910
H          0.62226       -2.47645       -0.63693
H          2.19558       -2.16803       -2.19277
H          4.55780       -1.48977       -2.32291
H          3.54262        2.38229       -0.78757
H          1.15433        1.70728       -0.65730
H          6.18119        0.38863       -2.40139
H          5.76271        1.95861       -1.72725
H          6.88441       -1.34384       -1.06511
H          7.83551       -0.83795        0.32873
H          6.22264       -2.51976        1.08438
H          4.87564       -1.63576        0.35194
H          7.68735       -0.41489        2.66741
H          6.93659       -1.91430        3.25020
H          6.46087       -0.35864        3.94939
H          5.09768        1.13331        2.72606
H          4.21455        0.52730        1.31879
H          7.12167        1.50597        1.38338
H          5.77168        2.30132        0.57736
H         -5.88199       -4.32356        0.02572
H         -5.50057       -3.87149        1.69581
H         -4.92268       -5.40283        1.03310
