68
MOLECULE0-opt-22-21-20-18-168.log	Energy: -992571.3959002
C         -0.47354        4.27496       -0.77095
C          0.87104        4.19234       -0.42985
C          1.54756        2.99045       -0.63132
C          0.82116        1.92646       -1.18251
N         -0.46785        1.99014       -1.51143
C         -1.09686        3.15008       -1.30007
C          2.96948        2.78932       -0.25376
C          3.90046        3.81930       -0.15432
C          5.18642        3.44669        0.23548
N          5.54581        2.19733        0.49656
C          4.57240        1.27490        0.35421
N          3.31238        1.52362       -0.00233
N          4.96120       -0.01113        0.61251
C          4.24533       -1.21718        0.49432
C          4.96896       -2.42697        0.47982
C          4.24822       -3.60977        0.33884
C          2.86246       -3.65092        0.19597
C          2.17135       -2.44328        0.21727
C          2.85979       -1.24334        0.39334
N          0.78482       -2.30517        0.03951
C         -0.15531       -3.23224       -0.33087
C         -1.47471       -2.60069       -0.67521
C         -1.54982       -1.35764       -1.31062
C         -2.78214       -0.77836       -1.57444
C         -3.96555       -1.40968       -1.19166
C         -3.88387       -2.67721       -0.60832
C         -2.65377       -3.27411       -0.35801
C         -5.30258       -0.70396       -1.34883
N         -5.69289        0.22602       -0.29999
C         -5.02608        1.52276       -0.24760
C         -3.81616        1.57770        0.70294
N         -4.11348        1.06854        2.03889
C         -4.90234        1.97743        2.85144
C         -4.67955       -0.27488        1.93964
C         -5.91460       -0.34048        1.02583
O          0.03656       -4.43611       -0.36459
C          6.47172       -2.44291        0.59962
H         -1.03304        5.19153       -0.61792
H          1.37608        5.04537        0.01415
H          1.32534        0.98122       -1.36685
H         -2.15183        3.17689       -1.56437
H          3.66146        4.85112       -0.38005
H          5.96797        4.19684        0.33844
H          5.94240       -0.07725        0.83850
H          4.79634       -4.54852        0.32597
H          2.33341       -4.58496        0.06543
H          2.31485       -0.31189        0.41831
H          0.44637       -1.35870        0.13085
H         -0.65338       -0.83248       -1.62730
H         -2.80999        0.19110       -2.06534
H         -4.79861       -3.19718       -0.33223
H         -2.59011       -4.25672        0.09881
H         -5.30814       -0.14849       -2.29448
H         -6.09488       -1.45980       -1.42358
H         -4.72439        1.80441       -1.26358
H         -5.76753        2.26779        0.07855
H         -3.45902        2.61167        0.79270
H         -2.99122        0.98270        0.29566
H         -5.91241        2.20509        2.46747
H         -4.36465        2.92679        2.95186
H         -5.01804        1.55025        3.85353
H         -4.93812       -0.62365        2.94685
H         -3.89761       -0.93828        1.55208
H         -6.74334        0.20781        1.49791
H         -6.24827       -1.37828        0.91470
H          6.81717       -2.03119        1.55782
H          6.95216       -1.86672       -0.20182
H          6.85186       -3.46560        0.53614
