%RWF=/scratch/bdw2292/Gau-MOLECULE0/,100GB
%Nosave
%Chk=MOLECULE0-opt-14-13-11-12-004.chk
%Mem=20GB
%Nproc=6
#P opt=(maxcycle=5,Loose) wB97XD/6-31G* MaxDisk=100GB

MOLECULE0 Rotatable Bond Optimization on node37.bme.utexas.edu

0 1
 C   -0.164154    4.503653   -1.238257
 C    1.170289    4.393042   -0.823335
 C    1.749073    3.120902   -0.642951
 C    0.906985    2.018556   -0.932976
 N   -0.367071    2.101293   -1.337391
 C   -0.887828    3.329760   -1.476949
 C    3.172676    2.907403   -0.187273
 C    4.122828    3.917471    0.031200
 C    5.392430    3.480494    0.426246
 N    5.726618    2.206802    0.614546
 C    4.744760    1.304700    0.406269
 N    3.505624    1.618023    0.015681
 N    5.094228   -0.021254    0.624807
 C    4.390762   -1.269031    0.451561
 C    5.120363   -2.495778    0.419658
 C    4.382021   -3.676508    0.225417
 C    2.991085   -3.713026    0.065484
 C    2.289247   -2.505067    0.123452
 C    2.998799   -1.309383    0.314824
 N    0.877198   -2.338824   -0.025954
 C   -0.114606   -3.216058   -0.396076
 C   -1.471241   -2.613362   -0.710248
 C   -1.617196   -1.362218   -1.333775
 C   -2.885455   -0.826335   -1.558874
 C   -4.050578   -1.517184   -1.179140
 C   -3.891828   -2.785215   -0.586282
 C   -2.625917   -3.336123   -0.369526
 C   -5.429843   -0.879006   -1.349965
 N   -5.908786    0.051411   -0.310055
 C   -5.331136    1.413639   -0.243695
 C   -4.150166    1.572636    0.748574
 N   -4.447118    1.102414    2.122052
 C   -5.170651    2.035156    2.994334
 C   -4.974601   -0.282506    2.053979
 C   -6.146310   -0.473086    1.054547
 O    0.060152   -4.422772   -0.455895
 C    6.631117   -2.571996    0.558050
 H   -0.632070    5.474151   -1.373300
 H    1.727369    5.306990   -0.632910
 H    1.296294    1.009387   -0.857712
 H   -1.925994    3.371860   -1.803011
 H    3.930318    4.973511   -0.112577
 H    6.190911    4.201425    0.600027
 H    6.069444   -0.076858    0.877839
 H    4.907664   -4.629731    0.180572
 H    2.459855   -4.643398   -0.095985
 H    2.463542   -0.375210    0.359957
 H    0.562538   -1.386461    0.096306
 H   -0.735972   -0.793415   -1.620532
 H   -2.955831    0.161064   -2.014785
 H   -4.767884   -3.352427   -0.272040
 H   -2.510922   -4.310789    0.098086
 H   -5.450025   -0.332842   -2.304311
 H   -6.178080   -1.681174   -1.427501
 H   -5.107950    1.769104   -1.198814
 H   -6.472968    2.358201    0.325898
 H   -3.817115    3.025463    0.807635
 H   -3.184294    0.994110    0.364679
 H   -6.184088    2.219256    2.620244
 H   -4.635428    2.989702    3.053305
 H   -5.239213    1.626427    4.009233
 H   -5.245222   -0.623533    3.067926
 H   -3.851148   -1.143189    1.584363
 H   -7.347247    0.346140    1.658975
 H   -6.480264   -1.562932    1.009010
 H    6.962763   -2.202744    1.538833
 H    7.136151   -1.969337   -0.210065
 H    7.020199   -3.594876    0.458991

12 11 13 14 F
10 11 13 14 F
19 18 20 21 F
17 18 20 21 F
36 21 22 23 F
20 21 22 23 F
36 21 22 27 F
20 21 22 27 F
24 25 28 29 F
26 25 28 29 F
25 28 29 35 F
25 28 29 30 F

