68
MOLECULE0-opt-29-28-25-24-067.log	Energy: -992570.4030987
C         -1.22687        4.80712       -0.67067
C         -2.52792        4.35144       -0.49610
C         -2.73296        3.05568       -0.02538
C         -1.59752        2.28438        0.25677
N         -0.34543        2.70383        0.08466
C         -0.17461        3.94658       -0.37671
C         -4.08117        2.45788        0.14129
C         -5.24397        3.19854        0.33440
C         -6.42561        2.46586        0.44072
N         -6.48132        1.14212        0.38306
C         -5.29537        0.52202        0.21677
N         -4.11445        1.12443        0.08451
N         -5.36234       -0.84348        0.18320
C         -4.33210       -1.80125        0.12845
C         -4.63993       -3.12749        0.49306
C         -3.61040       -4.06304        0.45687
C         -2.30235       -3.74854        0.09578
C         -2.02344       -2.43348       -0.26729
C         -3.04039       -1.47828       -0.27298
N         -0.75098       -1.95577       -0.62892
C          0.46497       -2.58367       -0.55785
C          1.63425       -1.68582       -0.85296
C          1.62092       -0.30592       -0.62936
C          2.73868        0.46185       -0.93283
C          3.89494       -0.12122       -1.45167
C          3.89913       -1.50174       -1.66975
C          2.79048       -2.27859       -1.36295
C          5.12642        0.72083       -1.75316
N          6.11129        0.90644       -0.70145
C          6.90966       -0.25145       -0.31570
C          6.33435       -1.03300        0.87784
N          6.04284       -0.18314        2.02932
C          7.22412        0.24655        2.75610
C          5.16589        0.91228        1.62527
C          5.72422        1.72288        0.44329
O          0.60825       -3.76808       -0.30064
C         -6.03131       -3.52093        0.92007
H         -1.02999        5.80587       -1.04522
H         -3.36990        4.98844       -0.75161
H         -1.72422        1.27832        0.64783
H          0.85509        4.26599       -0.51955
H         -5.24534        4.27841        0.41646
H         -7.37695        2.97417        0.58436
H         -6.29979       -1.18624        0.33100
H         -3.83545       -5.08928        0.73610
H         -1.52044       -4.49444        0.09914
H         -2.82080       -0.46176       -0.56303
H         -0.73722       -0.99753       -0.94413
H          0.76306        0.19862       -0.19176
H          2.70332        1.53338       -0.75075
H          4.78656       -1.97386       -2.08542
H          2.79834       -3.35242       -1.51921
H          5.64911        0.27997       -2.61129
H          4.79755        1.71975       -2.06691
H          7.02012       -0.91088       -1.18413
H          7.91894        0.10436       -0.05933
H          7.03653       -1.81684        1.18650
H          5.39959       -1.52390        0.58286
H          7.92522        0.88532        2.19026
H          7.77765       -0.63735        3.09140
H          6.91282        0.80378        3.64654
H          5.00138        1.57055        2.48694
H          4.19719        0.47814        1.35228
H          6.61319        2.27841        0.77782
H          4.99183        2.46882        0.11405
H         -6.77138       -3.36405        0.12332
H         -6.36503       -2.95577        1.79996
H         -6.06699       -4.58136        1.18215
