%RWF=/scratch/bdw2292/Gau-MOLECULE0/,100GB
%Nosave
%Chk=MOLECULE0-opt-25-28-29-35-356.chk
%Mem=20GB
%Nproc=6
#P opt=(,maxcycle=400) wB97XD/6-31G* MaxDisk=100GB

MOLECULE0 Rotatable Bond Optimization on g2-node38.bme.utexas.edu

0 1
 C   -0.416931    4.499220   -0.655325
 C    0.969242    4.391788   -0.476349
 C    1.579810    3.121868   -0.448087
 C    0.710059    2.023154   -0.657532
 N   -0.615059    2.102532   -0.835112
 C   -1.165288    3.327889   -0.818882
 C    3.049400    2.908974   -0.171333
 C    3.999263    3.928615    0.004292
 C    5.296715    3.504517    0.311384
 N    5.656547    2.233701    0.465943
 C    4.677491    1.320604    0.295028
 N    3.415879    1.618723   -0.031952
 N    5.060542   -0.000715    0.491870
 C    4.378492   -1.263786    0.350066
 C    5.132672   -2.474080    0.276926
 C    4.410997   -3.675248    0.158860
 C    3.014323   -3.744802    0.079969
 C    2.293150   -2.548182    0.129568
 C    2.983407   -1.335811    0.285702
 N    0.878135   -2.405352    0.005958
 C   -0.114067   -3.297926   -0.326259
 C   -1.478036   -2.700815   -0.619776
 C   -1.605922   -1.456588   -1.260942
 C   -2.864283   -0.916699   -1.517359
 C   -4.040255   -1.576078   -1.117000
 C   -3.901415   -2.821698   -0.474044
 C   -2.643553   -3.394520   -0.256937
 C   -5.392747   -0.895559   -1.337553
 N   -5.880527    0.095511   -0.354155
 C   -6.449667    1.359981   -0.865364
 C   -5.395506    2.482618   -1.045101
 N   -4.567846    2.756043    0.157192
 C   -5.130396    3.696672    1.133806
 C   -4.044413    1.478060    0.705566
 C   -5.111284    0.364701    0.882402
 O    0.065613   -4.504524   -0.364822
 C    6.649946   -2.515067    0.332089
 H   -0.912582    5.465367   -0.647720
 H    1.537841    5.304926   -0.318263
 H    1.114647    1.017339   -0.686750
 H   -2.248202    3.374972   -0.930765
 H    3.778783    4.985722   -0.081456
 H    6.092427    4.234633    0.457214
 H    6.048020   -0.040400    0.695788
 H    4.954784   -4.617700    0.103512
 H    2.495710   -4.687481   -0.047053
 H    2.432416   -0.410853    0.339068
 H    0.558496   -1.453602    0.118958
 H   -0.719532   -0.908666   -1.571091
 H   -2.915810    0.055216   -2.008007
 H   -4.787635   -3.360858   -0.140515
 H   -2.541164   -4.359340    0.233037
 H   -5.364011   -0.403148   -2.320538
 H   -6.160899   -1.680116   -1.393903
 H   -7.098953    1.138144   -2.052859
 H   -7.470704    1.858272    0.124957
 H   -5.848774    3.414366   -1.401982
 H   -4.416846    1.970735   -2.155553
 H   -6.033213    3.284869    1.599242
 H   -5.387283    4.642472    0.642607
 H   -4.395291    3.914946    1.916813
 H   -3.475167    1.747459    2.084013
 H   -3.225407    1.153938    0.079641
 H   -6.138867    0.938669    1.946300
 H   -4.745023   -0.492008    1.278944
 H    7.025092   -2.154971    1.300589
 H    7.097275   -1.886130   -0.450548
 H    7.057088   -3.525994    0.192180

25 28 29 35 F
25 28 29 30 F
14 13 11 12 F
14 13 11 10 F
15 14 13 11 F
19 14 13 11 F
19 18 20 21 F
17 18 20 21 F
22 21 20 18 F
36 21 20 18 F
20 21 22 23 F
36 21 22 23 F
36 21 22 27 F
20 21 22 27 F
29 28 25 24 F
29 28 25 26 F

