68
MOLECULE0-opt-25-28-29-35-086.log	Energy: -992572.0341464
C          0.72123        4.65714       -0.58774
C          2.04468        4.40160       -0.25116
C          2.54905        3.11275       -0.41784
C          1.67924        2.14258       -0.93330
N          0.40602        2.37007       -1.25026
C         -0.05680        3.61106       -1.07226
C          3.93072        2.72611       -0.03667
C          4.98483        3.62644        0.09159
C          6.20623        3.08529        0.49055
N          6.40097        1.79482        0.72626
C          5.32036        1.00756        0.54926
N          4.10559        1.42262        0.19315
N          5.53838       -0.32445        0.76970
C          4.68786       -1.42565        0.55138
C          5.27461       -2.69842        0.40654
C          4.42715       -3.77550        0.16457
C          3.04556       -3.64919        0.04491
C          2.48674       -2.38277        0.19971
C          3.30576       -1.28778        0.47944
N          1.11601       -2.09491        0.07361
C          0.09865       -2.89956       -0.37258
C         -1.20420       -2.18058       -0.58162
C         -1.28755       -0.82290       -0.89799
C         -2.52895       -0.21994       -1.07024
C         -3.70504       -0.95502       -0.94292
C         -3.61673       -2.31874       -0.64593
C         -2.38191       -2.92557       -0.47426
C         -5.05382       -0.29942       -1.14935
N         -6.03628       -0.74718       -0.17127
C         -7.41044       -0.37638       -0.50752
C         -7.71666        1.10446       -0.23265
N         -7.40763        1.50973        1.13742
C         -8.39054        1.06595        2.11005
C         -6.03652        1.13199        1.47849
C         -5.72889       -0.34728        1.20491
O          0.21633       -4.09796       -0.57204
C          6.76730       -2.89039        0.49504
H          0.29236        5.64548       -0.46196
H          2.66590        5.19141        0.16129
H          2.04941        1.13396       -1.09658
H         -1.10135        3.77355       -1.32743
H          4.88215        4.68454       -0.11429
H          7.07481        3.72756        0.62184
H          6.50264       -0.52461        0.98924
H          4.86784       -4.76234        0.04757
H          2.41672       -4.50166       -0.16886
H          2.86856       -0.30871        0.60828
H          0.86524       -1.14183        0.28902
H         -0.40252       -0.20937       -1.04663
H         -2.56962        0.83944       -1.31117
H         -4.53407       -2.88870       -0.53452
H         -2.30649       -3.98537       -0.25339
H         -4.91240        0.79584       -1.17912
H         -5.43639       -0.58210       -2.13903
H         -7.59671       -0.61769       -1.56042
H         -8.07970       -1.00899        0.09069
H         -8.77168        1.32101       -0.43669
H         -7.12251        1.73355       -0.90976
H         -8.48428       -0.02827        2.22568
H         -9.37449        1.45558        1.82752
H         -8.13650        1.48263        3.09060
H         -5.85555        1.36922        2.53309
H         -5.35913        1.76435        0.88833
H         -6.32560       -0.98142        1.87338
H         -4.67656       -0.56598        1.41196
H          7.16379       -2.62229        1.48396
H          7.30297       -2.29008       -0.25149
H          7.02938       -3.93692        0.32027
