68
MOLECULE0-opt-23-22-21-20-156.log	Energy: -992570.2080373
C         -0.08956        4.46401       -1.49992
C         -1.41898        4.25430       -1.15504
C         -1.76889        3.08219       -0.48576
C         -0.73985        2.17753       -0.19359
N          0.53565        2.35813       -0.52922
C          0.84493        3.48694       -1.17327
C         -3.16937        2.75300       -0.11885
C         -4.15768        3.71154        0.08461
C         -5.42597        3.22651        0.40102
N         -5.71391        1.93807        0.51739
C         -4.68172        1.09307        0.31577
N         -3.43512        1.44918        0.00356
N         -5.00202       -0.23015        0.44870
C         -4.21306       -1.38852        0.33351
C         -4.82693       -2.63589        0.57256
C         -4.03868       -3.77742        0.45916
C         -2.68373       -3.74535        0.13467
C         -2.10044       -2.50255       -0.09192
C         -2.86634       -1.33993       -0.00542
N         -0.74685       -2.29116       -0.40571
C          0.27248       -3.19251       -0.56352
C          1.59446       -2.53787       -0.85529
C          2.75473       -3.18777       -0.43489
C          3.99470       -2.58569       -0.60875
C          4.10819       -1.32918       -1.20886
C          2.94899       -0.71714       -1.68598
C          1.70520       -1.30623       -1.50792
C          5.45019       -0.61944       -1.29726
N          5.79375        0.30442       -0.22894
C          6.00285       -0.26936        1.09581
C          4.74941       -0.24221        1.98620
N          4.14702        1.08442        2.08259
C          4.89360        2.00761        2.91776
C          3.85982        1.59490        0.74411
C          5.09143        1.58331       -0.17863
O          0.14827       -4.40059       -0.44680
C         -6.28543       -2.73582        0.94177
H          0.21628        5.36194       -2.02611
H         -2.17621        4.98344       -1.42850
H         -0.97189        1.26700        0.35199
H          1.89239        3.61256       -1.43898
H         -3.96383        4.77521        0.02429
H         -6.25071        3.91545        0.57242
H         -5.97430       -0.36163        0.68435
H         -4.50367       -4.74346        0.63884
H         -2.09564       -4.64989        0.06630
H         -2.41399       -0.38159       -0.20813
H         -0.47312       -1.32035       -0.40485
H          2.66364       -4.15988        0.03885
H          4.89097       -3.09161       -0.25681
H          3.01526        0.24519       -2.18746
H          0.82828       -0.80244       -1.90531
H          6.24538       -1.37445       -1.34181
H          5.49643       -0.05922       -2.23934
H          6.36694       -1.29684        0.98236
H          6.80758        0.29646        1.58874
H          4.99867       -0.59166        2.99565
H          3.99205       -0.92275        1.57980
H          5.90695        2.26280        2.55985
H          4.99642        1.57839        3.92059
H          4.33024        2.94278        3.00923
H          3.46800        2.61553        0.83332
H          3.05748        0.98454        0.31699
H          5.80709        2.34310        0.17026
H          4.80517        1.86745       -1.19833
H         -6.94057       -2.33109        0.15872
H         -6.51188       -2.20277        1.87486
H         -6.57131       -3.77994        1.09149
