68
MOLECULE0-opt-23-22-21-36-065.log	Energy: -992570.3836019
C         -1.08934        4.77939       -0.82254
C         -2.39024        4.35045       -0.58886
C         -2.60059        3.05896       -0.10856
C         -1.46978        2.26420        0.12190
N         -0.21849        2.65790       -0.10760
C         -0.04295        3.89702       -0.57662
C         -3.95216        2.48951        0.11907
C         -5.08895        3.25643        0.35889
C         -6.28053        2.55080        0.52006
N         -6.36740        1.22834        0.47232
C         -5.20345        0.58139        0.25902
N         -4.01643        1.15680        0.07119
N         -5.30185       -0.78246        0.23880
C         -4.29397       -1.76234        0.16027
C         -4.60854       -3.07142        0.57715
C         -3.59971       -4.02811        0.51787
C         -2.30539       -3.74914        0.08612
C         -2.01899       -2.45010       -0.32575
C         -3.01763       -1.47565       -0.31223
N         -0.75291       -2.00932       -0.75255
C          0.45810       -2.64460       -0.65973
C          1.64153       -1.77075       -0.97018
C          2.81316       -2.39990       -1.39394
C          3.94902       -1.65224       -1.67383
C          3.95469       -0.26372       -1.51712
C          2.77766        0.35824       -1.09944
C          1.63555       -0.38078       -0.81888
C          5.22455        0.54164       -1.75021
N          6.08863        0.80066       -0.61056
C          6.77117       -0.34404       -0.01778
C          6.01540       -0.97294        1.16473
N          5.64491        0.00251        2.18691
C          6.75736        0.44567        3.00752
C          4.88621        1.09122        1.57773
C          5.61820        1.74751        0.39465
O          0.58866       -3.82099       -0.36176
C         -5.98429       -3.42493        1.08243
H         -0.88922        5.77403       -1.20617
H         -3.22945        5.00490       -0.80637
H         -1.59922        1.26066        0.51858
H          0.98582        4.19455       -0.76583
H         -5.06260        4.33638        0.43539
H         -7.21368        3.08039        0.70132
H         -6.23880       -1.10282        0.43291
H         -3.82951       -5.04134        0.83781
H         -1.53750       -4.50923        0.07552
H         -2.79319       -0.47145       -0.63989
H         -0.73233       -1.06019       -1.09352
H          2.81436       -3.48023       -1.49604
H          4.85271       -2.15501       -2.01115
H          2.74851        1.43705       -0.96553
H          0.76719        0.15685       -0.44689
H          5.83154        0.02616       -2.50536
H          4.95323        1.51503       -2.17766
H          6.94811       -1.09378       -0.79749
H          7.76044       -0.00657        0.32606
H          6.62768       -1.75595        1.62821
H          5.09340       -1.44426        0.80479
H          7.55936        0.98602        2.47369
H          7.21179       -0.42520        3.49253
H          6.37923        1.10819        3.79385
H          4.66761        1.84313        2.34575
H          3.92948        0.67779        1.23935
H          6.49316        2.29547        0.77548
H          4.97063        2.48699       -0.09059
H         -6.75792       -3.28401        0.31509
H         -6.26773       -2.82282        1.95546
H         -6.02421       -4.47444        1.38481
