%RWF=/scratch/bdw2292/Gau-MOLECULE0/,100GB
%Nosave
%Chk=MOLECULE0-opt-29-28-25-24-037.chk
%Mem=20GB
%Nproc=6
#P opt=(,maxcycle=400) wB97XD/6-31G* MaxDisk=100GB

MOLECULE0 Rotatable Bond Optimization on g2-node38.bme.utexas.edu

0 1
 C   -4.560764   -4.802091    5.236004
 C   -3.587377   -5.765801    5.535446
 C   -2.401947   -5.829046    4.776210
 C   -2.280289   -4.860349    3.748744
 N   -3.193787   -3.927757    3.449587
 C   -4.316239   -3.911141    4.184403
 C   -1.297222   -6.826693    5.029054
 C   -1.252431   -7.755153    6.081027
 C   -0.098721   -8.545665    6.142210
 N    0.911939   -8.473820    5.279821
 C    0.772517   -7.572786    4.284887
 N   -0.285329   -6.769201    4.142266
 N    1.822914   -7.505988    3.378748
 C    2.091550   -6.651959    2.246103
 C    3.418021   -6.558748    1.726353
 C    3.623774   -5.679834    0.648120
 C    2.611290   -4.911868    0.059203
 C    1.309644   -5.048855    0.551313
 C    1.074110   -5.912155    1.632553
 N    0.148576   -4.360869    0.077888
 C   -0.001837   -3.324108   -0.812581
 C   -1.372126   -2.675323   -0.878048
 C   -2.200759   -2.526343    0.245980
 C   -3.471101   -1.962522    0.122006
 C   -3.951419   -1.473456   -1.105242
 C   -3.101289   -1.622832   -2.222160
 C   -1.832978   -2.199914   -2.115448
 C   -5.337813   -0.848691   -1.296144
 N   -6.041218    0.014978   -0.327807
 C   -5.578604    1.416962   -0.197211
 C   -4.696954    1.748197    1.031765
 N   -5.289371    1.315677    2.320373
 C   -6.299401    2.202088    2.910533
 C   -5.623942   -0.122832    2.221932
 C   -6.499365   -0.483239    0.991061
 O    0.901265   -2.947914   -1.543260
 C    4.596429   -7.323369    2.304642
 H   -5.483902   -4.739523    5.804821
 H   -3.781109   -6.457296    6.351612
 H   -1.375396   -4.819673    3.152029
 H   -5.044099   -3.144478    3.922844
 H   -2.024068   -7.857641    6.834217
 H    0.022170   -9.278151    6.939915
 H    2.555378   -8.140196    3.660616
 H    4.627530   -5.566030    0.240301
 H    2.812666   -4.238517   -0.765265
 H    0.073836   -6.017616    2.019868
 H   -0.708940   -4.644307    0.530829
 H   -1.869188   -2.891064    1.215473
 H   -4.095199   -1.957252    1.007523
 H   -3.425829   -1.279120   -3.204587
 H   -1.188652   -2.302636   -2.985275
 H   -5.285943   -0.245447   -2.215097
 H   -6.028249   -1.688012   -1.471751
 H   -4.782344    1.820131   -1.434374
 H   -6.810665    2.306375   -0.112637
 H   -4.428609    2.726914    1.082291
 H   -3.352935    0.883519    0.829111
 H   -7.193166    2.255635    2.278989
 H   -5.890184    3.212009    3.028220
 H   -6.588332    1.838952    3.903342
 H   -6.435672   -0.511074    3.449868
 H   -4.823514   -0.599616    2.263581
 H   -7.897278    0.299377    1.276807
 H   -6.745310   -1.523129    0.941641
 H    4.458615   -8.409012    2.201798
 H    4.731189   -7.107502    3.373906
 H    5.548753   -7.079598    1.813752

29 28 25 24 F
29 28 25 26 F
14 13 11 12 F
14 13 11 10 F
15 14 13 11 F
19 14 13 11 F
19 18 20 21 F
17 18 20 21 F
22 21 20 18 F
36 21 20 18 F
20 21 22 23 F
36 21 22 23 F
36 21 22 27 F
20 21 22 27 F
25 28 29 35 F
25 28 29 30 F

