68
MOLECULE0-opt-22-21-20-18-360.log	Energy: -992569.9519507
C          7.44735        1.88258        0.72270
C          6.88657        0.63194        0.94267
C          5.74855        0.26422        0.22482
C          5.23105        1.19201       -0.68686
N          5.76002        2.39322       -0.91012
C          6.84846        2.72339       -0.21034
C          5.08863       -1.05068        0.40253
C          5.77584       -2.18244        0.83593
C          5.02715       -3.34913        0.95954
N          3.73377       -3.42056        0.67930
C          3.16944       -2.27273        0.25111
N          3.78392       -1.09822        0.10866
N          1.84045       -2.39334       -0.04969
C          0.90796       -1.46677       -0.54214
C         -0.31725       -1.97897       -1.01658
C         -1.25603       -1.08479       -1.52149
C         -1.02249        0.28294       -1.55377
C          0.15915        0.78259       -1.01465
C          1.12806       -0.08684       -0.51986
N          0.39102        2.18110       -0.93066
C         -0.51509        3.15784       -0.58269
C         -1.74491        2.69801        0.14409
C         -1.68338        1.77656        1.19127
C         -2.85105        1.32081        1.78449
C         -4.10134        1.74246        1.32560
C         -4.14881        2.71550        0.32631
C         -2.98123        3.20183       -0.25279
C         -5.37568        1.10507        1.85475
N         -5.80478       -0.13997        1.23550
C         -5.07997       -1.36105        1.56639
C         -3.97267       -1.73043        0.56351
N         -4.43743       -1.74319       -0.82318
C         -5.26009       -2.89294       -1.15947
C         -5.05910       -0.45727       -1.13862
C         -6.19251       -0.08462       -0.16811
O         -0.31402        4.33178       -0.84219
C         -0.62560       -3.45470       -0.98265
H          8.32684        2.20645        1.26893
H          7.31501       -0.03856        1.68219
H          4.34778        0.93271       -1.26490
H          7.25935        3.71161       -0.40421
H          6.83860       -2.17422        1.04289
H          5.49357       -4.27281        1.29629
H          1.51951       -3.34350        0.06096
H         -2.21326       -1.46778       -1.86716
H         -1.76769        0.95667       -1.96132
H          2.04260        0.30693       -0.09945
H          1.25202        2.54678       -1.31690
H         -0.72204        1.39865        1.52556
H         -2.79421        0.59753        2.59479
H         -5.11266        3.08672       -0.01506
H         -3.01860        3.95452       -1.03417
H         -5.26442        0.91069        2.92831
H         -6.19982        1.82222        1.74934
H         -4.65711       -1.26103        2.57226
H         -5.80913       -2.18423        1.61156
H         -3.55951       -2.71754        0.80557
H         -3.15239       -1.00668        0.62452
H         -6.21505       -2.96845       -0.61214
H         -4.69194       -3.80865       -0.96169
H         -5.49139       -2.86500       -2.22982
H         -5.43984       -0.49183       -2.16659
H         -4.27393        0.30728       -1.09784
H         -7.03513       -0.77626       -0.31823
H         -6.56689        0.91984       -0.39398
H         -0.61885       -3.85544        0.04044
H          0.08840       -4.04195       -1.57445
H         -1.62260       -3.63851       -1.39112
