68
MOLECULE0-opt-22-21-20-18-248.log	Energy: -992571.7697202
C          0.46898        4.11153       -0.84560
C         -0.90917        4.10603       -0.66625
C         -1.49103        3.05532        0.04042
C         -0.63323        2.08423        0.57191
N          0.68575        2.07354        0.40468
C          1.22205        3.06669       -0.31677
C         -2.95748        2.88360        0.16767
C         -3.86982        3.93344        0.22541
C         -5.21387        3.57195        0.30572
N         -5.64200        2.31582        0.31432
C         -4.67576        1.37759        0.25622
N         -3.36588        1.61242        0.20135
N         -5.12929        0.08577        0.24066
C         -4.43025       -1.12258        0.06221
C         -5.17597       -2.28691       -0.21476
C         -4.47550       -3.47504       -0.40154
C         -3.08710       -3.56578       -0.32988
C         -2.37291       -2.40532       -0.04472
C         -3.04483       -1.20040        0.15608
N         -0.97319       -2.33819        0.08770
C         -0.02645       -3.27568       -0.23366
C          1.37749       -2.83179        0.06994
C          1.68909       -2.03496        1.17549
C          3.00568       -1.67579        1.43138
C          4.03734       -2.07676        0.58082
C          3.71708       -2.88087       -0.51563
C          2.40561       -3.26729       -0.76455
C          5.47783       -1.66312        0.84508
N          5.89752       -0.33495        0.43699
C          5.54827        0.79933        1.28219
C          4.29478        1.56362        0.82694
N          4.33765        1.92771       -0.58996
C          5.25354        3.01540       -0.89252
C          4.55991        0.72556       -1.39349
C          5.83323       -0.03259       -0.98645
O         -0.27231       -4.36391       -0.72687
C         -6.67966       -2.24915       -0.31812
H          0.95382        4.89912       -1.41292
H         -1.52777        4.88275       -1.10807
H         -1.05330        1.27645        1.16650
H          2.29497        2.98887       -0.49284
H         -3.56263        4.97220        0.23165
H         -5.98635        4.33610        0.36414
H         -6.13688        0.03504        0.25049
H         -5.04031       -4.37735       -0.62225
H         -2.57362       -4.50178       -0.49891
H         -2.48546       -0.30003        0.35593
H         -0.61743       -1.42039        0.31413
H          0.91108       -1.72731        1.86885
H          3.23563       -1.08286        2.31345
H          4.51037       -3.22225       -1.17692
H          2.16138       -3.91372       -1.60149
H          5.68198       -1.75293        1.91873
H          6.13739       -2.38336        0.34310
H          5.42169        0.44782        2.31214
H          6.40233        1.49384        1.29096
H          4.17620        2.47816        1.42101
H          3.39363        0.95886        0.97696
H          6.31699        2.81443       -0.68022
H          4.96083        3.89858       -0.31333
H          5.16842        3.26547       -1.95568
H          4.61138        1.01057       -2.45130
H          3.68556        0.07625       -1.26486
H          6.71439        0.56974       -1.25474
H          5.90922       -0.96848       -1.55069
H         -7.02040       -1.56085       -1.10264
H         -7.15177       -1.93908        0.62406
H         -7.07388       -3.23890       -0.56183
