68
MOLECULE0-opt-23-22-21-36-335.log	Energy: -992570.2079746
C         -0.08899        4.46337       -1.50090
C         -1.41841        4.25386       -1.15589
C         -1.76837        3.08201       -0.48618
C         -0.73939        2.17736       -0.19375
N          0.53610        2.35777       -0.52952
C          0.84545        3.48634       -1.17396
C         -3.16886        2.75308       -0.11910
C         -4.15713        3.71171        0.08403
C         -5.42541        3.22685        0.40078
N         -5.71338        1.93849        0.51775
C         -4.68121        1.09336        0.31644
N         -3.43462        1.44930        0.00407
N         -5.00150       -0.22978        0.45004
C         -4.21282       -1.38826        0.33394
C         -4.82680       -2.63560        0.57286
C         -4.03880       -3.77724        0.45876
C         -2.68398       -3.74530        0.13370
C         -2.10058       -2.50252       -0.09277
C         -2.86624       -1.33980       -0.00556
N         -0.74709       -2.29129       -0.40709
C          0.27232       -3.19271       -0.56401
C          1.59441       -2.53816       -0.85555
C          2.75454       -3.18788       -0.43448
C          3.99453       -2.58578       -0.60805
C          4.10818       -1.32944       -1.20851
C          2.94914       -0.71761       -1.68626
C          1.70532       -1.30671       -1.50850
C          5.45017       -0.61961       -1.29659
N          5.79321        0.30456       -0.22839
C          6.00251       -0.26887        1.09646
C          4.74910       -0.24189        1.98692
N          4.14617        1.08453        2.08285
C          4.89231        2.00834        2.91775
C          3.85873        1.59445        0.74421
C          5.09043        1.58320       -0.17844
O          0.14810       -4.40072       -0.44669
C         -6.28513       -2.73540        0.94276
H          0.21688        5.36110       -2.02742
H         -2.17561        4.98295       -1.42955
H         -0.97147        1.26701        0.35211
H          1.89292        3.61178       -1.43972
H         -3.96326        4.77535        0.02318
H         -6.25009        3.91591        0.57202
H         -5.97380       -0.36120        0.68564
H         -4.50387       -4.74326        0.63834
H         -2.09607       -4.64992        0.06480
H         -2.41378       -0.38145       -0.20803
H         -0.47334       -1.32048       -0.40663
H          2.66333       -4.15986        0.03950
H          4.89071       -3.09152       -0.25561
H          3.01558        0.24455       -2.18805
H          0.82848       -0.80310       -1.90631
H          6.24546       -1.37455       -1.34070
H          5.49666       -0.05961       -2.23878
H          6.36687       -1.29628        0.98322
H          6.80706        0.29725        1.58926
H          4.99857       -0.59088        2.99652
H          3.99198       -0.92287        1.58082
H          5.90549        2.26398        2.55971
H          4.99540        1.57943        3.92067
H          4.32844        2.94323        3.00899
H          3.46629        2.61486        0.83308
H          3.05678        0.98344        0.31723
H          5.80578        2.34339        0.17036
H          4.80417        1.86701       -1.19823
H         -6.94062       -2.33025        0.16022
H         -6.51100       -2.20268        1.87618
H         -6.57114       -3.77953        1.09221
