68
MOLECULE0-opt-25-28-29-35-324.log	Energy: -992571.3958186
C         -0.47378        4.27510       -0.77176
C          0.87075        4.19245       -0.43046
C          1.54718        2.99044       -0.63154
C          0.82074        1.92636       -1.18251
N         -0.46822        1.99008       -1.51162
C         -1.09714        3.15014       -1.30066
C          2.96904        2.78931       -0.25386
C          3.90001        3.81931       -0.15451
C          5.18595        3.44678        0.23541
N          5.54533        2.19746        0.49670
C          4.57194        1.27501        0.35447
N          3.31191        1.52366       -0.00212
N          4.96074       -0.01098        0.61301
C          4.24502       -1.21709        0.49457
C          4.96880       -2.42677        0.47993
C          4.24823       -3.60964        0.33869
C          2.86249       -3.65094        0.19564
C          2.17122       -2.44338        0.21707
C          2.85949       -1.24339        0.39347
N          0.78471       -2.30542        0.03910
C         -0.15532       -3.23263       -0.33120
C         -1.47478       -2.60115       -0.67546
C         -1.54989       -1.35815       -1.31093
C         -2.78222       -0.77878       -1.57452
C         -3.96559       -1.40995       -1.19141
C         -3.88392       -2.67745       -0.60801
C         -2.65382       -3.27445       -0.35793
C         -5.30257       -0.70404       -1.34828
N         -5.69237        0.22620       -0.29950
C         -5.02524        1.52279       -0.24745
C         -3.81523        1.57760        0.70296
N         -4.11253        1.06875        2.03903
C         -4.90118        1.97792        2.85144
C         -4.67886       -0.27457        1.94006
C         -5.91404       -0.34003        1.02644
O          0.03667       -4.43648       -0.36481
C          6.47156       -2.44251        0.59985
H         -1.03320        5.19177       -0.61906
H          1.37581        5.04556        0.01335
H          1.32487        0.98101       -1.36647
H         -2.15208        3.17696       -1.56509
H          3.66102        4.85111       -0.38037
H          5.96748        4.19695        0.33833
H          5.94197       -0.07705        0.83891
H          4.79646       -4.54833        0.32573
H          2.33357       -4.58503        0.06493
H          2.31444       -0.31202        0.41859
H          0.44614       -1.35899        0.13041
H         -0.65343       -0.83317       -1.62783
H         -2.81013        0.19067       -2.06543
H         -4.79865       -3.19731       -0.33166
H         -2.59013       -4.25703        0.09895
H         -5.30835       -0.14878       -2.29406
H         -6.09502       -1.45976       -1.42263
H         -4.72355        1.80415       -1.26351
H         -5.76647        2.26804        0.07859
H         -3.45782        2.61146        0.79251
H         -2.99047        0.98233        0.29569
H         -5.91127        2.20562        2.46753
H         -4.36337        2.92725        2.95158
H         -5.01682        1.55100        3.85365
H         -4.93734       -0.62314        2.94735
H         -3.89711       -0.93817        1.55246
H         -6.74263        0.20855        1.49857
H         -6.24798       -1.37776        0.91553
H          6.81686       -2.03071        1.55807
H          6.95197       -1.86627       -0.20156
H          6.85184       -3.46515        0.53644
