%RWF=/scratch/bdw2292/Gau-MOLECULE0/,100GB
%Nosave
%Chk=MOLECULE0-opt-29-28-25-24-127.chk
%Mem=20GB
%Nproc=6
#P opt=(maxcycle=5,Loose) wB97XD/6-31G* MaxDisk=100GB

MOLECULE0 Rotatable Bond Optimization on node37.bme.utexas.edu

0 1
 C   -5.288650   -7.907078   -4.240257
 C   -4.158372   -8.655808   -4.596275
 C   -2.896675   -8.320753   -4.066012
 C   -2.880564   -7.227351   -3.164314
 N   -3.948341   -6.503395   -2.805552
 C   -5.128757   -6.842360   -3.345860
 C   -1.628044   -9.071832   -4.389121
 C   -1.538155  -10.236942   -5.166982
 C   -0.256911  -10.788188   -5.285624
 N    0.839240  -10.275119   -4.732949
 C    0.664116   -9.138120   -4.027552
 N   -0.516017   -8.538714   -3.848540
 N    1.809689   -8.594805   -3.464555
 C    2.040283   -7.459409   -2.603566
 C    3.266814   -7.360055   -1.879580
 C    3.423741   -6.248121   -1.034091
 C    2.461433   -5.243265   -0.876608
 C    1.281585   -5.334814   -1.621891
 C    1.090152   -6.439993   -2.465914
 N    0.195850   -4.401728   -1.599699
 C   -0.060641   -3.322546   -0.787305
 C   -1.440230   -2.697685   -0.877267
 C   -2.609315   -3.438824   -1.116573
 C   -3.843958   -2.796125   -1.226929
 C   -3.972505   -1.402952   -1.057355
 C   -2.792223   -0.677651   -0.808002
 C   -1.549605   -1.308223   -0.707336
 C   -5.340818   -0.728717   -1.195984
 N   -5.904048    0.140060   -0.147060
 C   -5.411698    1.521466    0.059693
 C   -4.398862    1.710969    1.220668
 N   -4.852304    1.147583    2.513621
 C   -5.780860    1.961997    3.307013
 C   -5.227838   -0.271833    2.304443
 C   -6.243632   -0.479587    1.153893
 O    0.781382   -2.851808   -0.038692
 C    4.369509   -8.402037   -1.955945
 H   -6.269248   -8.142788   -4.643093
 H   -4.285017   -9.479566   -5.294432
 H   -1.952485   -6.940008   -2.681992
 H   -5.982027   -6.238724   -3.040524
 H   -2.387300  -10.725615   -5.629000
 H   -0.105418  -11.704251   -5.856075
 H    2.598109   -9.195518   -3.653901
 H    4.338883   -6.148479   -0.451609
 H    2.620108   -4.403842   -0.210567
 H    0.181639   -6.518040   -3.040904
 H   -0.544566   -4.614140   -2.253611
 H   -2.549828   -4.517679   -1.242186
 H   -4.720906   -3.407898   -1.437873
 H   -2.819324    0.407004   -0.737934
 H   -0.644677   -0.734391   -0.522753
 H   -5.315017   -0.124935   -2.115361
 H   -6.091848   -1.519436   -1.340307
 H   -5.080092    1.945811   -0.850999
 H   -6.691085    2.373725    0.508837
 H   -4.213512    3.206971    1.391216
 H   -3.513759    1.330287    1.023860
 H   -6.742211    2.076709    2.793486
 H   -5.354059    2.955448    3.485575
 H   -5.956352    1.491742    4.281459
 H   -5.524550   -0.688020    3.182201
 H   -3.903209   -1.026143    1.842626
 H   -7.567675    0.119951    1.620326
 H   -6.432213   -1.965863    0.982042
 H    4.793228   -8.463844   -2.968200
 H    3.997338   -9.402022   -1.691609
 H    5.207205   -8.190579   -1.277039

24 25 28 29 F
26 25 28 29 F
12 11 13 14 F
10 11 13 14 F
19 18 20 21 F
17 18 20 21 F
36 21 22 23 F
20 21 22 23 F
36 21 22 27 F
20 21 22 27 F
25 28 29 35 F
25 28 29 30 F

