%RWF=/scratch/bdw2292/Gau-MOLECULE0/,100GB
%Nosave
%Chk=MOLECULE0-opt-22-21-20-18-140.chk
%Mem=20GB
%Nproc=6
#P opt=(,maxcycle=400) wB97XD/6-31G* MaxDisk=100GB

MOLECULE0 Rotatable Bond Optimization on node37.bme.utexas.edu

0 1
 C    3.524408    2.463742   -4.781283
 C    4.382015    2.492918   -3.673195
 C    4.198107    1.581666   -2.613412
 C    3.130394    0.664295   -2.771868
 N    2.301125    0.620359   -3.822008
 C    2.499662    1.511522   -4.804550
 C    5.062571    1.557178   -1.376523
 C    6.173668    2.385782   -1.150057
 C    6.833935    2.197490    0.068293
 N    6.467063    1.315474    0.992658
 C    5.379709    0.571356    0.698551
 N    4.684577    0.664521   -0.439059
 N    5.005016   -0.329157    1.684025
 C    3.987536   -1.346099    1.777367
 C    4.096048   -2.345278    2.792640
 C    3.083286   -3.316764    2.848536
 C    1.994496   -3.359225    1.971089
 C    1.895451   -2.367313    0.989114
 C    2.893179   -1.382064    0.903658
 N    0.851233   -2.275227    0.016357
 C   -0.154627   -3.161117   -0.279384
 C   -1.526675   -2.592592   -0.581643
 C   -1.733683   -1.378642   -1.256993
 C   -3.027748   -0.903874   -1.479540
 C   -4.158119   -1.620190   -1.044134
 C   -3.937698   -2.842260   -0.380582
 C   -2.647046   -3.330948   -0.165104
 C   -5.568008   -1.058486   -1.232447
 N   -6.088158   -0.092840   -0.247134
 C   -5.580026    1.297416   -0.269782
 C   -4.400456    1.567582    0.699626
 N   -4.671837    1.177966    2.102898
 C   -5.434010    2.132895    2.916559
 C   -5.134225   -0.231294    2.129853
 C   -6.295434   -0.542806    1.149005
 O    0.025330   -4.367269   -0.287621
 C    5.241157   -2.411316    3.789092
 H    3.644539    3.161261   -5.605040
 H    5.170956    3.240599   -3.656157
 H    2.946776   -0.089443   -2.014262
 H    1.810601    1.453359   -5.645632
 H    6.533039    3.126836   -1.853269
 H    7.710724    2.795133    0.316124
 H    5.664270   -0.280738    2.446350
 H    3.139200   -4.101721    3.601958
 H    1.253082   -4.147052    2.034702
 H    2.827342   -0.615234    0.147938
 H    0.908282   -1.470043   -0.589948
 H   -0.881650   -0.806428   -1.613737
 H   -3.153088    0.047757   -1.996081
 H   -4.783256   -3.425415   -0.016347
 H   -2.486828   -4.277090    0.345592
 H   -5.621119   -0.574882   -2.218632
 H   -6.277439   -1.898340   -1.254894
 H   -5.375039    1.605779   -1.255392
 H   -6.753779    2.213210    0.242697
 H   -4.132364    3.043923    0.662673
 H   -3.452542    1.033311    0.362425
 H   -6.456423    2.245086    2.538429
 H   -4.943435    3.112871    2.907849
 H   -5.478795    1.790354    3.956840
 H   -5.382444   -0.514717    3.155263
 H   -3.958973   -1.078057    1.703529
 H   -7.534489    0.254552    1.707063
 H   -6.574922   -1.638154    1.172951
 H    5.256168   -1.527308    4.442257
 H    6.214324   -2.464498    3.280728
 H    5.186061   -3.288111    4.449026

22 21 20 18 F
36 21 20 18 F
8 7 3 2 F
12 7 3 2 F
8 7 3 4 F
12 7 3 4 F
14 13 11 12 F
14 13 11 10 F
15 14 13 11 F
19 14 13 11 F
19 18 20 21 F
17 18 20 21 F
20 21 22 23 F
36 21 22 23 F
36 21 22 27 F
20 21 22 27 F
29 28 25 24 F
29 28 25 26 F
25 28 29 35 F
25 28 29 30 F

