%RWF=/scratch/bdw2292/Gau-MOLECULE0/,100GB
%Nosave
%Chk=MOLECULE0-opt-23-22-21-20-246.chk
%Mem=20GB
%Nproc=6
#P opt=(,maxcycle=400) wB97XD/6-31G* MaxDisk=100GB

MOLECULE0 Rotatable Bond Optimization on g2-node38.bme.utexas.edu

0 1
 C   -4.778158   -8.490529   -4.184821
 C   -3.567453   -9.193032   -4.253521
 C   -2.432435   -8.711978   -3.569782
 C   -2.622231   -7.520989   -2.826546
 N   -3.771461   -6.839330   -2.745030
 C   -4.825717   -7.319848   -3.420295
 C   -1.091093   -9.402691   -3.593235
 C   -0.823024  -10.628231   -4.224927
 C    0.486992  -11.101890   -4.101489
 N    1.456741  -10.465926   -3.451988
 C    1.115529   -9.285993   -2.891799
 N   -0.106986   -8.749197   -2.942739
 N    2.146689   -8.632934   -2.236212
 C    2.232369   -7.424530   -1.456364
 C    3.369238   -7.226750   -0.614411
 C    3.413034   -6.041511    0.137114
 C    2.418345   -5.059125    0.100003
 C    1.319351   -5.256716   -0.743063
 C    1.239839   -6.436233   -1.503031
 N    0.221734   -4.348270   -0.892792
 C   -0.102856   -3.213436   -0.187489
 C   -1.478373   -2.642935   -0.446621
 C   -1.600822   -1.385401   -1.055824
 C   -2.865608   -0.854104   -1.318620
 C   -4.040689   -1.556179   -0.987469
 C   -3.897346   -2.816118   -0.374295
 C   -2.637563   -3.356037   -0.106045
 C   -5.422721   -0.948078   -1.231772
 N   -5.991991   -0.018031   -0.240658
 C   -5.462404    1.361657   -0.161895
 C   -4.364514    1.571428    0.912376
 N   -4.749570    1.120775    2.269836
 C   -5.567017    2.046340    3.063442
 C   -5.225203   -0.281902    2.193024
 C   -6.310797   -0.528526    1.112656
 O    0.659655   -2.667641    0.591980
 C    4.503639   -8.228784   -0.481514
 H   -5.662220   -8.839143   -4.710397
 H   -3.534367  -10.098936   -4.853650
 H   -1.803638   -7.106795   -2.248029
 H   -5.745490   -6.743094   -3.338104
 H   -1.561284  -11.210148   -4.762696
 H    0.772744  -12.052480   -4.551097
 H    2.976860   -9.205370   -2.271838
 H    4.259811   -5.860332    0.797868
 H    2.491354   -4.161087    0.701482
 H    0.395386   -6.600848   -2.154204
 H   -0.463897   -4.620231   -1.584174
 H   -0.698222   -0.835770   -1.310373
 H   -2.932439    0.128663   -1.784724
 H   -4.780225   -3.387631   -0.088456
 H   -2.539861   -4.331985    0.362801
 H   -5.400688   -0.422229   -2.197420
 H   -6.147735   -1.767243   -1.345447
 H   -5.173330    1.705254   -1.108069
 H   -6.665757    2.280418    0.295541
 H   -4.069895    3.041056    0.964911
 H   -3.344423    0.995827    0.605576
 H   -6.556435    2.183967    2.612940
 H   -5.072347    3.021641    3.135310
 H   -5.693830    1.659500    4.081280
 H   -5.551366   -0.611446    3.181177
 H   -4.019151   -1.129421    1.807457
 H   -7.581538    0.257815    1.612211
 H   -6.603951   -1.636942    1.063078
 H    5.044432   -8.349902   -1.430567
 H    4.132672   -9.219513   -0.183086
 H    5.249710   -7.935418    0.269915

20 21 22 23 F
36 21 22 23 F
36 21 22 27 F
20 21 22 27 F
14 13 11 12 F
14 13 11 10 F
15 14 13 11 F
19 14 13 11 F
19 18 20 21 F
17 18 20 21 F
22 21 20 18 F
36 21 20 18 F
29 28 25 24 F
29 28 25 26 F
25 28 29 35 F
25 28 29 30 F

