%RWF=/scratch/bdw2292/Gau-MOLECULE0/,100GB
%Nosave
%Chk=MOLECULE0-opt-23-22-21-20-186.chk
%Mem=20GB
%Nproc=6
#P opt=(,maxcycle=400) wB97XD/6-31G* MaxDisk=100GB

MOLECULE0 Rotatable Bond Optimization on node37.bme.utexas.edu

0 1
 C   -5.808080   -7.777570    3.033479
 C   -4.714268   -8.591296    3.359654
 C   -3.404748   -8.161899    3.065559
 C   -3.299685   -6.884642    2.460952
 N   -4.330099   -6.092026    2.140281
 C   -5.561824   -6.542330    2.423366
 C   -2.171164   -8.981779    3.355988
 C   -2.149607  -10.230120    3.998284
 C   -0.885320  -10.808951    4.156311
 N    0.251249  -10.262936    3.733095
 C    0.134977   -9.070670    3.111501
 N   -1.021703   -8.429496    2.921845
 N    1.323167   -8.512423    2.663793
 C    1.651096   -7.257524    2.032158
 C    3.005173   -6.804413    2.031621
 C    3.268932   -5.572222    1.409688
 C    2.288440   -4.775444    0.807370
 C    0.968063   -5.237006    0.806055
 C    0.674672   -6.471442    1.408215
 N   -0.163843   -4.550482    0.254974
 C   -0.299227   -3.274386   -0.239392
 C   -1.684023   -2.717001   -0.532485
 C   -1.741670   -1.456069   -1.154479
 C   -2.969073   -0.868973   -1.468957
 C   -4.185717   -1.513547   -1.180236
 C   -4.119170   -2.776438   -0.563606
 C   -2.896060   -3.370576   -0.245654
 C   -5.529184   -0.847147   -1.477716
 N   -6.090177    0.105009   -0.503976
 C   -5.507259    1.461073   -0.400303
 C   -4.446152    1.620560    0.718788
 N   -4.900919    1.177908    2.057478
 C   -5.707395    2.132791    2.826925
 C   -5.433419   -0.202434    1.953302
 C   -6.487119   -0.395805    0.831361
 O    0.680656   -2.578996   -0.464635
 C    4.146279   -7.573829    2.674841
 H   -6.825916   -8.092550    3.243919
 H   -4.910100   -9.554926    3.823280
 H   -2.321928   -6.471132    2.240639
 H   -6.383670   -5.880727    2.154268
 H   -3.031152  -10.737760    4.370120
 H   -0.781736  -11.773545    4.652392
 H    2.096029   -9.102710    2.932781
 H    4.288981   -5.190383    1.397447
 H    2.533422   -3.822470    0.355141
 H   -0.338344   -6.839513    1.406719
 H   -1.020493   -5.080695    0.303906
 H   -0.809529   -0.944641   -1.381611
 H   -2.971437    0.113704   -1.940336
 H   -5.036232   -3.303977   -0.301370
 H   -2.898740   -4.333228    0.258975
 H   -5.448696   -0.326290   -2.442800
 H   -6.285436   -1.631986   -1.623761
 H   -5.161632    1.793930   -1.337867
 H   -6.686862    2.429585    0.010032
 H   -4.087538    3.048992    0.791750
 H   -3.413189    0.977214    0.435773
 H   -6.671055    2.317831    2.339156
 H   -5.173015    3.084294    2.927928
 H   -5.891838    1.743785    3.834989
 H   -5.804904   -0.520982    2.916622
 H   -4.257705   -1.093827    1.608238
 H   -7.738540    0.436466    1.281830
 H   -6.827210   -1.514824    0.762946
 H    4.313316   -8.537214    2.172625
 H    3.943576   -7.783921    3.734507
 H    5.101379   -7.031671    2.641420

20 21 22 23 F
36 21 22 23 F
36 21 22 27 F
20 21 22 27 F
8 7 3 2 F
12 7 3 2 F
8 7 3 4 F
12 7 3 4 F
14 13 11 12 F
14 13 11 10 F
15 14 13 11 F
19 14 13 11 F
19 18 20 21 F
17 18 20 21 F
22 21 20 18 F
36 21 20 18 F
29 28 25 24 F
29 28 25 26 F
25 28 29 35 F
25 28 29 30 F

