68
MOLECULE0-opt-15-14-13-11-111.log	Energy: -992571.3958061
C         -0.47357        4.27502       -0.77151
C          0.87100        4.19241       -0.43037
C          1.54747        2.99045       -0.63156
C          0.82102        1.92634       -1.18247
N         -0.46799        1.99001       -1.51143
C         -1.09693        3.15004       -1.30037
C          2.96934        2.78933       -0.25390
C          3.90033        3.81932       -0.15450
C          5.18621        3.44677        0.23558
N          5.54554        2.19745        0.49694
C          4.57218        1.27500        0.35452
N          3.31219        1.52367       -0.00219
N          4.96095       -0.01100        0.61299
C          4.24520       -1.21710        0.49456
C          4.96895       -2.42679        0.47968
C          4.24833       -3.60964        0.33850
C          2.86257       -3.65090        0.19567
C          2.17132       -2.44333        0.21730
C          2.85964       -1.24337        0.39374
N          0.78480       -2.30533        0.03947
C         -0.15525       -3.23254       -0.33081
C         -1.47467       -2.60108       -0.67517
C         -1.54976       -1.35805       -1.31060
C         -2.78208       -0.77875       -1.57437
C         -3.96548       -1.40999       -1.19146
C         -3.88382       -2.67750       -0.60807
C         -2.65372       -3.27444       -0.35782
C         -5.30252       -0.70422       -1.34857
N         -5.69268        0.22600       -0.29990
C         -5.02574        1.52269       -0.24783
C         -3.81588        1.57773        0.70278
N         -4.11335        1.06894        2.03884
C         -4.90223        1.97807        2.85107
C         -4.67947       -0.27447        1.93989
C         -5.91449       -0.34017        1.02605
O          0.03668       -4.43641       -0.36428
C          6.47174       -2.44257        0.59929
H         -1.03302        5.19165       -0.61871
H          1.37608        5.04553        0.01344
H          1.32518        0.98102       -1.36648
H         -2.15191        3.17681       -1.56463
H          3.66136        4.85112       -0.38041
H          5.96773        4.19694        0.33861
H          5.94211       -0.07706        0.83924
H          4.79654       -4.54834        0.32538
H          2.33361       -4.58497        0.06498
H          2.31459       -0.31199        0.41905
H          0.44626       -1.35888        0.13065
H         -0.65330       -0.83296       -1.62732
H         -2.80994        0.19070       -2.06530
H         -4.79856       -3.19740       -0.33186
H         -2.59006       -4.25703        0.09904
H         -5.30818       -0.14898       -2.29435
H         -6.09484       -1.46007       -1.42307
H         -4.72394        1.80403       -1.26386
H         -5.76712        2.26785        0.07806
H         -3.45861        2.61162        0.79231
H         -2.99101        0.98250        0.29570
H         -5.91227        2.20566        2.46696
H         -4.36453        2.92746        2.95125
H         -5.01801        1.55119        3.85328
H         -4.93809       -0.62299        2.94716
H         -3.89754       -0.93800        1.55246
H         -6.74324        0.20836        1.49800
H         -6.24828       -1.37796        0.91515
H          6.81725       -2.03113        1.55759
H          6.95197       -1.86601       -0.20200
H          6.85202       -3.46518        0.53541
