68
MOLECULE0-opt-14-13-11-12-032.log	Energy: -992571.3957935
C         -0.47378        4.27504       -0.77150
C          0.87077        4.19245       -0.43029
C          1.54726        2.99049       -0.63143
C          0.82086        1.92638       -1.18241
N         -0.46813        1.99004       -1.51145
C         -1.09710        3.15006       -1.30041
C          2.96914        2.78939       -0.25376
C          3.90012        3.81940       -0.15450
C          5.18603        3.44689        0.23553
N          5.54541        2.19757        0.49684
C          4.57207        1.27509        0.35447
N          3.31202        1.52374       -0.00206
N          4.96094       -0.01092        0.61278
C          4.24525       -1.21705        0.49440
C          4.96904       -2.42674        0.47973
C          4.24845       -3.60961        0.33861
C          2.86271       -3.65093        0.19567
C          2.17142       -2.44338        0.21708
C          2.85971       -1.24338        0.39341
N          0.78490       -2.30537        0.03916
C         -0.15523       -3.23259       -0.33084
C         -1.47464       -2.60112       -0.67526
C         -1.54978       -1.35817       -1.31082
C         -2.78212       -0.77886       -1.57450
C         -3.96550       -1.41004       -1.19139
C         -3.88380       -2.67749       -0.60789
C         -2.65367       -3.27442       -0.35771
C         -5.30255       -0.70427       -1.34845
N         -5.69263        0.22601       -0.29981
C         -5.02560        1.52266       -0.24777
C         -3.81570        1.57762        0.70278
N         -4.11312        1.06882        2.03885
C         -4.90190        1.97800        2.85113
C         -4.67934       -0.27455        1.93989
C         -5.91442       -0.34015        1.02614
O          0.03665       -4.43647       -0.36418
C          6.47181       -2.44248        0.59956
H         -1.03327        5.19165       -0.61871
H          1.37582        5.04557        0.01355
H          1.32502        0.98106       -1.36637
H         -2.15206        3.17683       -1.56477
H          3.66113        4.85116       -0.38049
H          5.96756        4.19707        0.33853
H          5.94213       -0.07693        0.83890
H          4.79669       -4.54829        0.32566
H          2.33379       -4.58503        0.06506
H          2.31465       -0.31200        0.41861
H          0.44643       -1.35889        0.13026
H         -0.65337       -0.83310       -1.62773
H         -2.80999        0.19055       -2.06550
H         -4.79850       -3.19735       -0.33150
H         -2.58996       -4.25696        0.09926
H         -5.30828       -0.14912       -2.29429
H         -6.09488       -1.46013       -1.42283
H         -4.72380        1.80398       -1.26382
H         -5.76691        2.26789        0.07812
H         -3.45832        2.61149        0.79231
H         -2.99090        0.98234        0.29566
H         -5.91191        2.20572        2.46702
H         -4.36410        2.92732        2.95138
H         -5.01774        1.55107        3.85331
H         -4.93788       -0.62310        2.94718
H         -3.89750       -0.93809        1.55240
H         -6.74310        0.20841        1.49813
H         -6.24830       -1.37792        0.91524
H          6.81713       -2.03107        1.55794
H          6.95216       -1.86588       -0.20163
H          6.85214       -3.46507        0.53564
