%RWF=/scratch/bdw2292/Gau-MOLECULE0/,100GB
%Nosave
%Chk=MOLECULE0-opt-23-22-21-36-107.chk
%Mem=20GB
%Nproc=6
#P opt=(,maxcycle=400) wB97XD/6-31G* MaxDisk=100GB

MOLECULE0 Rotatable Bond Optimization on node37.bme.utexas.edu

0 1
 C   -0.805172   -5.311685   -6.291778
 C    0.593374   -5.283404   -6.213938
 C    1.228569   -4.886021   -5.019210
 C    0.366607   -4.566921   -3.939491
 N   -0.971519   -4.593387   -3.998223
 C   -1.539790   -4.953002   -5.157205
 C    2.728587   -4.804038   -4.870371
 C    3.657070   -5.203279   -5.846998
 C    5.004708   -5.050698   -5.505940
 N    5.436063   -4.544478   -4.355136
 C    4.475627   -4.164390   -3.485672
 N    3.163759   -4.280823   -3.706756
 N    4.946484   -3.616976   -2.302067
 C    4.309186   -3.156709   -1.095866
 C    5.096326   -2.984383    0.083653
 C    4.428350   -2.552705    1.241579
 C    3.054100   -2.293647    1.300594
 C    2.304407   -2.448934    0.130702
 C    2.940059   -2.870178   -1.045760
 N    0.907059   -2.233463    0.032803
 C   -0.099411   -3.121896   -0.261470
 C   -1.477610   -2.570477   -0.559941
 C   -1.690936   -1.359344   -1.237298
 C   -2.988505   -0.889021   -1.450739
 C   -4.113169   -1.615146   -1.015069
 C   -3.884243   -2.838507   -0.356684
 C   -2.590520   -3.318625   -0.142900
 C   -5.529529   -1.067876   -1.196922
 N   -6.055768   -0.112854   -0.204995
 C   -5.564103    1.282555   -0.221735
 C   -4.378915    1.553511    0.740520
 N   -4.634791    1.149823    2.143152
 C   -5.393525    2.093802    2.972520
 C   -5.090824   -0.261887    2.163747
 C   -6.256981   -0.572879    1.188666
 O    0.086850   -4.326170   -0.258621
 C    6.587709   -3.267764    0.145080
 H   -1.313563   -5.601580   -7.206590
 H    1.158639   -5.550329   -7.103513
 H    0.775953   -4.306020   -2.968937
 H   -2.628425   -4.960846   -5.169273
 H    3.385743   -5.629942   -6.804584
 H    5.785357   -5.352911   -6.203699
 H    5.955074   -3.642907   -2.300761
 H    4.994251   -2.426713    2.164016
 H    2.577219   -1.984420    2.222412
 H    2.352909   -3.003950   -1.941610
 H    0.643616   -1.262341    0.125386
 H   -0.836919   -0.786679   -1.590631
 H   -3.121985    0.063084   -1.964668
 H   -4.725278   -3.429007    0.005567
 H   -2.420882   -4.265038    0.364252
 H   -5.591612   -0.584496   -2.182651
 H   -6.231351   -1.913913   -1.224708
 H   -5.367972    1.601726   -1.213662
 H   -6.742933    2.182644    0.307825
 H   -4.122716    3.030736    0.712669
 H   -3.434448    1.031951    0.392549
 H   -6.420562    2.203155    2.606157
 H   -4.908671    3.076657    2.966420
 H   -5.425333    1.742640    4.010374
 H   -5.343229   -0.558107    3.212853
 H   -3.922175   -1.096704    1.733607
 H   -7.498545    0.221945    1.760257
 H   -6.532805   -1.661231    1.206962
 H    7.151296   -2.590479   -0.512028
 H    6.814918   -4.296907   -0.167695
 H    7.006546   -3.148241    1.153872

36 21 22 23 F
20 21 22 23 F
36 21 22 27 F
20 21 22 27 F
12 11 13 14 F
10 11 13 14 F
19 18 20 21 F
17 18 20 21 F
24 25 28 29 F
26 25 28 29 F
25 28 29 35 F
25 28 29 30 F

