68
MOLECULE0-opt-23-22-21-36-185.log	Energy: -992571.3958563
C         -0.47340        4.27500       -0.77146
C          0.87116        4.19235       -0.43025
C          1.54762        2.99039       -0.63154
C          0.82120        1.92634       -1.18261
N         -0.46778        1.99007       -1.51165
C         -1.09673        3.15008       -1.30048
C          2.96950        2.78922       -0.25390
C          3.90059        3.81915       -0.15482
C          5.18651        3.44655        0.23512
N          5.54575        2.19725        0.49666
C          4.57224        1.27487        0.35468
N          3.31222        1.52358       -0.00187
N          4.96089       -0.01111        0.61350
C          4.24513       -1.21718        0.49481
C          4.96883       -2.42691        0.48002
C          4.24819       -3.60972        0.33856
C          2.86245       -3.65091        0.19544
C          2.17125       -2.44332        0.21707
C          2.85960       -1.24339        0.39370
N          0.78475       -2.30525        0.03908
C         -0.15536       -3.23236       -0.33127
C         -1.47482       -2.60084       -0.67550
C         -1.54997       -1.35779       -1.31088
C         -2.78230       -0.77842       -1.57448
C         -3.96567       -1.40967       -1.19150
C         -3.88397       -2.67722       -0.60820
C         -2.65385       -3.27420       -0.35808
C         -5.30274       -0.70393       -1.34845
N         -5.69287        0.22613       -0.29962
C         -5.02604        1.52287       -0.24740
C         -3.81598        1.57780        0.70298
N         -4.11316        1.06874        2.03900
C         -4.90198        1.97767        2.85154
C         -4.67923       -0.27470        1.93988
C         -5.91443       -0.34028        1.02626
O          0.03658       -4.43622       -0.36504
C          6.47159       -2.44280        0.60003
H         -1.03285        5.19161       -0.61859
H          1.37628        5.04540        0.01363
H          1.32535        0.98104       -1.36673
H         -2.15170        3.17688       -1.56479
H          3.66165        4.85091       -0.38090
H          5.96813        4.19665        0.33784
H          5.94217       -0.07730        0.83912
H          4.79637       -4.54843        0.32549
H          2.33349       -4.58496        0.06461
H          2.31458       -0.31199        0.41896
H          0.44624       -1.35882        0.13051
H         -0.65356       -0.83268       -1.62768
H         -2.81018        0.19106       -2.06534
H         -4.79869       -3.19710       -0.33188
H         -2.59015       -4.25682        0.09871
H         -5.30849       -0.14859       -2.29418
H         -6.09503       -1.45980       -1.42297
H         -4.72446        1.80447       -1.26344
H         -5.76737        2.26790        0.07878
H         -3.45875        2.61171        0.79266
H         -2.99111        0.98272        0.29563
H         -5.91210        2.20520        2.46764
H         -4.36435        2.92709        2.95178
H         -5.01751        1.55060        3.85370
H         -4.93762       -0.62345        2.94715
H         -3.89736       -0.93811        1.55218
H         -6.74315        0.20806        1.49846
H         -6.24819       -1.37809        0.91524
H          6.81689       -2.03111        1.55829
H          6.95212       -1.86656       -0.20132
H          6.85178       -3.46547        0.53653
