68
MOLECULE0-opt-29-28-25-24-197.log	Energy: -992571.3956931
C         -0.47352        4.27491       -0.77176
C          0.87100        4.19231       -0.43040
C          1.54752        2.99037       -0.63157
C          0.82118        1.92629       -1.18269
N         -0.46778        1.98994       -1.51182
C         -1.09678        3.14994       -1.30078
C          2.96937        2.78928       -0.25383
C          3.90035        3.81928       -0.15449
C          5.18628        3.44672        0.23542
N          5.54565        2.19740        0.49674
C          4.57224        1.27497        0.35458
N          3.31222        1.52363       -0.00203
N          4.96095       -0.01102        0.61330
C          4.24522       -1.21711        0.49464
C          4.96893       -2.42684        0.48012
C          4.24833       -3.60966        0.33862
C          2.86262       -3.65088        0.19520
C          2.17141       -2.44329        0.21659
C          2.85971       -1.24335        0.39328
N          0.78496       -2.30519        0.03825
C         -0.15530       -3.23249       -0.33119
C         -1.47486       -2.60109       -0.67531
C         -1.55016       -1.35824       -1.31109
C         -2.78258       -0.77902       -1.57458
C         -3.96584       -1.41017       -1.19108
C         -3.88398       -2.67751       -0.60737
C         -2.65378       -3.27438       -0.35737
C         -5.30296       -0.70449       -1.34800
N         -5.69287        0.22595       -0.29946
C         -5.02582        1.52260       -0.24778
C         -3.81575        1.57767        0.70255
N         -4.11304        1.06924        2.03878
C         -4.90167        1.97865        2.85093
C         -4.67932       -0.27414        1.94026
C         -5.91453       -0.33988        1.02666
O          0.03658       -4.43636       -0.36445
C          6.47166       -2.44267        0.60047
H         -1.03301        5.19152       -0.61898
H          1.37597        5.04540        0.01358
H          1.32540        0.98100       -1.36671
H         -2.15170        3.17672       -1.56526
H          3.66138        4.85107       -0.38039
H          5.96784        4.19688        0.33831
H          5.94221       -0.07715        0.83906
H          4.79651       -4.54837        0.32574
H          2.33372       -4.58494        0.06426
H          2.31468       -0.31195        0.41841
H          0.44647       -1.35873        0.12954
H         -0.65380       -0.83328       -1.62826
H         -2.81071        0.19029       -2.06577
H         -4.79861       -3.19735       -0.33069
H         -2.58997       -4.25683        0.09975
H         -5.30887       -0.14946       -2.29392
H         -6.09527       -1.46039       -1.42214
H         -4.72421        1.80373       -1.26392
H         -5.76701        2.26784        0.07812
H         -3.45830        2.61152        0.79179
H         -2.99102        0.98225        0.29543
H         -5.91178        2.20620        2.46696
H         -4.36388        2.92802        2.95073
H         -5.01728        1.55206        3.85328
H         -4.93780       -0.62236        2.94767
H         -3.89752       -0.93788        1.55288
H         -6.74314        0.20889        1.49864
H         -6.24851       -1.37765        0.91605
H          6.81670       -2.03082        1.55876
H          6.95237       -1.86653       -0.20085
H          6.85190       -3.46534        0.53724
