68
MOLECULE0-opt-23-22-21-20-336.log	Energy: -992569.4407815
C          1.06481        4.84772        0.14658
C          2.36881        4.38523        0.27487
C          2.68398        3.10998       -0.19159
C          1.65253        2.36905       -0.78149
N          0.39636        2.79252       -0.90209
C          0.11674        4.01365       -0.43602
C          4.03293        2.50979       -0.04032
C          5.20252        3.25955        0.04273
C          6.38241        2.53715        0.21524
N          6.43023        1.21522        0.29756
C          5.24271        0.58390        0.18874
N          4.05908        1.17528        0.02165
N          5.31957       -0.77861        0.27705
C          4.31656       -1.76427        0.24523
C          4.68262       -3.09153        0.55051
C          3.68367       -4.06011        0.52436
C          2.35514       -3.78274        0.20973
C          2.02010       -2.46733       -0.09827
C          2.99672       -1.47197       -0.07752
N          0.73256       -2.02897       -0.45595
C         -0.46641       -2.68202       -0.36635
C         -1.66055       -1.84832       -0.74980
C         -1.65308       -0.45215       -0.83186
C         -2.79902        0.23457       -1.21226
C         -3.98401       -0.44346       -1.49946
C         -3.98371       -1.83807       -1.41679
C         -2.84239       -2.53252       -1.04035
C         -5.24807        0.32186       -1.86263
N         -6.14059        0.72247       -0.78784
C         -5.65500        1.73597        0.14176
C         -5.00008        1.15664        1.40695
N         -5.84124        0.17574        2.08719
C         -6.95465        0.75860        2.81407
C         -6.23082       -0.87440        1.15013
C         -6.90297       -0.32713       -0.12041
O         -0.57998       -3.84900       -0.02617
C          6.10361       -3.45207        0.90259
H          0.78209        5.83050        0.50827
H          3.12220        4.99878        0.76053
H          1.87093        1.38365       -1.18342
H         -0.91680        4.33723       -0.53444
H          5.21287        4.33908       -0.04315
H          7.33798        3.05218        0.29047
H          6.26509       -1.09521        0.43164
H          3.95371       -5.08595        0.76214
H          1.60109       -4.55685        0.20497
H          2.72601       -0.44802       -0.28258
H          0.70245       -1.08513       -0.80740
H         -0.77611        0.14127       -0.58508
H         -2.76244        1.31927       -1.27941
H         -4.89395       -2.38673       -1.64894
H         -2.84188       -3.61498       -0.96646
H         -4.96128        1.23387       -2.40142
H         -5.83815       -0.28336       -2.56195
H         -4.95145        2.39047       -0.38549
H         -6.51007        2.36351        0.43533
H         -4.76063        1.96397        2.10991
H         -4.05953        0.65975        1.14219
H         -7.69917        1.29276        2.19786
H         -6.56683        1.46831        3.55325
H         -7.48095       -0.03483        3.35602
H         -6.90555       -1.57174        1.66121
H         -5.32476       -1.42932        0.88025
H         -7.88725        0.08774        0.14377
H         -7.08590       -1.13833       -0.83438
H          6.45432       -2.91760        1.79521
H          6.80314       -3.22984        0.08524
H          6.18827       -4.52134        1.11193
