%RWF=/scratch/bdw2292/Gau-MOLECULE0/,100GB
%Nosave
%Chk=MOLECULE0-opt-29-28-25-24-187.chk
%Mem=20GB
%Nproc=6
#P opt=(maxcycle=5,Loose) wB97XD/6-31G* MaxDisk=100GB

MOLECULE0 Rotatable Bond Optimization on node37.bme.utexas.edu

0 1
 C   -2.496187   -2.450163   -8.146653
 C   -1.164322   -2.728783   -8.483379
 C   -0.246627   -3.098184   -7.479808
 C   -0.774010   -3.182741   -6.167152
 N   -2.043306   -2.928269   -5.825212
 C   -2.882432   -2.562353   -6.806075
 C    1.202603   -3.420759   -7.750714
 C    1.804096   -3.484148   -9.017734
 C    3.153019   -3.856723   -9.030241
 N    3.869986   -4.127094   -7.943000
 C    3.219423   -4.011101   -6.766245
 N    1.933022   -3.671240   -6.646975
 N    3.978138   -4.274760   -5.635464
 C    3.667887   -4.335733   -4.227758
 C    4.571681   -4.989813   -3.336820
 C    4.209312   -5.042135   -1.980068
 C    3.032104   -4.487955   -1.463599
 C    2.173625   -3.820704   -2.343372
 C    2.501212   -3.762313   -3.707349
 N    0.937203   -3.190118   -1.994044
 C    0.213898   -3.196011   -0.824791
 C   -1.193157   -2.632897   -0.876164
 C   -2.040710   -2.767467   -1.987192
 C   -3.310130   -2.186292   -1.980490
 C   -3.805850   -1.478093   -0.864296
 C   -2.948318   -1.377748    0.245666
 C   -1.672405   -1.947070    0.250395
 C   -5.198922   -0.851899   -0.988522
 N   -5.911554    0.041837   -0.055854
 C   -5.500119    1.463241    0.030006
 C   -4.595858    1.862925    1.222151
 N   -5.120313    1.428120    2.540496
 C   -6.126421    2.292371    3.168926
 C   -5.417539   -0.023679    2.484244
 C   -6.318287   -0.431082    1.289903
 O    0.673962   -3.609408    0.228185
 C    5.865535   -5.643711   -3.790347
 H   -3.218196   -2.157035   -8.903192
 H   -0.867239   -2.637820   -9.525238
 H   -0.137432   -3.502602   -5.349298
 H   -3.908570   -2.359750   -6.503271
 H    1.281969   -3.298737   -9.948390
 H    3.687910   -3.949049   -9.975181
 H    4.907009   -4.556471   -5.911294
 H    4.867763   -5.545060   -1.273111
 H    2.788341   -4.553728   -0.410088
 H    1.842025   -3.253956   -4.392598
 H    0.483953   -2.713903   -2.761426
 H   -1.697021   -3.304239   -2.868583
 H   -3.922678   -2.291923   -2.876461
 H   -3.249378   -0.841519    1.135810
 H   -1.022331   -1.855655    1.117327
 H   -5.176821   -0.284056   -1.932166
 H   -5.886034   -1.706577   -1.098296
 H   -4.906362    1.865142   -1.141690
 H   -6.822230    2.305373    0.207261
 H   -4.422773    3.061222    1.232784
 H   -3.414446    1.305704    1.060077
 H   -7.051854    2.310295    2.582534
 H   -5.743810    3.315884    3.253636
 H   -6.353963    1.934704    4.179551
 H   -6.192451   -0.406392    3.747504
 H   -4.619021   -0.482706    2.514703
 H   -7.727894    0.330739    1.600005
 H   -6.542644   -1.478516    1.276931
 H    6.562386   -4.904694   -4.210289
 H    5.682516   -6.402458   -4.564256
 H    6.398940   -6.151665   -2.975145

24 25 28 29 F
26 25 28 29 F
12 11 13 14 F
10 11 13 14 F
19 18 20 21 F
17 18 20 21 F
36 21 22 23 F
20 21 22 23 F
36 21 22 27 F
20 21 22 27 F
25 28 29 35 F
25 28 29 30 F

