%RWF=/scratch/bdw2292/Gau-MOLECULE0/,100GB
%Nosave
%Chk=MOLECULE0-opt-23-22-21-36-327.chk
%Mem=20GB
%Nproc=6
#P opt=(,maxcycle=400) wB97XD/6-31G* MaxDisk=100GB

MOLECULE0 Rotatable Bond Optimization on node37.bme.utexas.edu

0 1
 C   -1.791274   -3.330337    6.592670
 C   -0.469942   -3.797762    6.607379
 C    0.354547   -3.624248    5.476766
 C   -0.243341   -2.959361    4.377330
 N   -1.502958   -2.505803    4.346285
 C   -2.257885   -2.692969    5.438099
 C    1.785669   -4.100916    5.410301
 C    2.474773   -4.738732    6.455362
 C    3.801154   -5.090052    6.184168
 N    4.418669   -4.862567    5.029228
 C    3.679631   -4.252305    4.078343
 N    2.408927   -3.871813    4.237211
 N    4.340019   -4.030803    2.879210
 C    3.978498   -3.368476    1.652661
 C    5.006202   -2.983034    0.738199
 C    4.604038   -2.335118   -0.441982
 C    3.271301   -2.054926   -0.765953
 C    2.280161   -2.451951    0.136275
 C    2.645420   -3.097043    1.325560
 N    0.893370   -2.224971   -0.029484
 C   -0.110425   -3.086277   -0.400783
 C   -1.462014   -2.488091   -0.732641
 C   -1.623038   -1.240448   -1.355961
 C   -2.900282   -0.723984   -1.583561
 C   -4.055821   -1.437036   -1.212634
 C   -3.879785   -2.703825   -0.623829
 C   -2.606318   -3.228620   -0.393637
 C   -5.449530   -0.833988   -1.390301
 N   -5.964253    0.075895   -0.351337
 C   -5.432018    1.454007   -0.273965
 C   -4.269122    1.633069    0.735511
 N   -4.581269    1.158837    2.103984
 C   -5.340697    2.073436    2.964594
 C   -5.073349   -0.239472    2.031974
 C   -6.216629   -0.461151    1.006020
 O    0.047850   -4.293870   -0.438308
 C    6.484392   -3.227739    0.989032
 H   -2.443041   -3.454563    7.452521
 H   -0.114068   -4.295454    7.506030
 H    0.330456   -2.772989    3.476531
 H   -3.275903   -2.311156    5.381373
 H    2.043965   -4.955156    7.425095
 H    4.404668   -5.584468    6.944895
 H    5.296139   -4.342206    2.961143
 H    5.361795   -2.021042   -1.158956
 H    3.008123   -1.546928   -1.685604
 H    1.870703   -3.408457    2.008487
 H    0.638362   -1.253192    0.080333
 H   -0.744363   -0.669938   -1.645598
 H   -2.992700    0.260555   -2.042713
 H   -4.746838   -3.285774   -0.312557
 H   -2.477242   -4.199291    0.078891
 H   -5.475475   -0.293709   -2.347868
 H   -6.178531   -1.651648   -1.485418
 H   -5.197671    1.821353   -1.237091
 H   -6.598057    2.358796    0.272723
 H   -3.966989    3.090437    0.800346
 H   -3.322961    1.095481    0.382732
 H   -6.353253    2.230651    2.576217
 H   -4.831247    3.041674    3.029078
 H   -5.411706    1.664455    3.979084
 H   -5.348792   -0.578992    3.023768
 H   -3.899138   -1.087581    1.580147
 H   -7.454844    0.331000    1.589000
 H   -6.516886   -1.527536    0.951346
 H    6.712994   -4.302661    1.014221
 H    6.806369   -2.798617    1.948499
 H    7.129863   -2.786001    0.217362

36 21 22 23 F
20 21 22 23 F
36 21 22 27 F
20 21 22 27 F
12 11 13 14 F
10 11 13 14 F
19 18 20 21 F
17 18 20 21 F
24 25 28 29 F
26 25 28 29 F
25 28 29 35 F
25 28 29 30 F

