%RWF=/scratch/bdw2292/Gau-MOLECULE0/,100GB
%Nosave
%Chk=MOLECULE0-opt-22-21-20-18-112.chk
%Mem=20GB
%Nproc=6
#P opt=(,maxcycle=400) wB97XD/6-31G* MaxDisk=100GB

MOLECULE0 Rotatable Bond Optimization on g2-node38.bme.utexas.edu

0 1
 C    5.543923    0.272129   -4.943898
 C    6.025505    0.665078   -3.687975
 C    5.394617    0.205720   -2.513891
 C    4.294254   -0.664724   -2.708835
 N    3.821199   -1.052149   -3.899772
 C    4.438753   -0.583980   -4.994224
 C    5.837452    0.595398   -1.125022
 C    6.948063    1.403156   -0.829991
 C    7.183540    1.641293    0.527557
 N    6.427672    1.169991    1.513958
 C    5.372303    0.416157    1.138969
 N    5.064435    0.119967   -0.127145
 N    4.590548   -0.048291    2.184906
 C    3.444593   -0.917359    2.273001
 C    3.101226   -1.480238    3.540284
 C    1.980101   -2.324404    3.584834
 C    1.197171   -2.641681    2.469708
 C    1.537712   -2.071904    1.237542
 C    2.655085   -1.223971    1.156887
 N    0.839764   -2.301019    0.014117
 C   -0.160107   -3.194806   -0.266510
 C   -1.526755   -2.611744   -0.558301
 C   -1.718233   -1.394299   -1.231210
 C   -3.007470   -0.906596   -1.455755
 C   -4.145864   -1.615376   -1.028004
 C   -3.938823   -2.837778   -0.360560
 C   -2.653674   -3.336102   -0.136292
 C   -5.552908   -1.049784   -1.227441
 N   -6.080926   -0.081544   -0.249537
 C   -5.574174    1.308889   -0.267558
 C   -4.406638    1.582095    0.715350
 N   -4.688557    1.186186    2.115071
 C   -5.459977    2.134531    2.927300
 C   -5.147978   -0.224007    2.132997
 C   -6.302862   -0.531866    1.143972
 O    0.018440   -4.399928   -0.269263
 C    3.886465   -1.222004    4.815375
 H    6.010879    0.620423   -5.860445
 H    6.879395    1.337111   -3.655325
 H    3.778125   -1.086834   -1.853551
 H    4.031731   -0.915263   -5.948136
 H    7.611121    1.822407   -1.576626
 H    8.031164    2.250888    0.839537
 H    4.998966    0.246726    3.059126
 H    1.695123   -2.779352    4.532830
 H    0.354527   -3.317656    2.556747
 H    2.929168   -0.784836    0.210288
 H    1.173238   -1.784798   -0.788027
 H   -0.855779   -0.828922   -1.572943
 H   -3.123042    0.047549   -1.969805
 H   -4.791190   -3.414865   -0.002957
 H   -2.503271   -4.284950    0.372700
 H   -5.596598   -0.569997   -2.216040
 H   -6.264591   -1.887739   -1.255847
 H   -5.356529    1.618766   -1.257791
 H   -6.761379    2.228085    0.235975
 H   -4.141967    3.054326    0.683532
 H   -3.437567    1.039012    0.378862
 H   -6.481028    2.241930    2.544374
 H   -4.975065    3.117229    2.924268
 H   -5.508215    1.788277    3.966143
 H   -5.413739   -0.516684    3.178453
 H   -3.977575   -1.061813    1.719381
 H   -7.542296    0.264068    1.690891
 H   -6.585686   -1.638509    1.165068
 H    3.842699   -0.162451    5.104793
 H    4.946243   -1.489129    4.697622
 H    3.513365   -1.798037    5.673458

22 21 20 18 F
36 21 20 18 F
14 13 11 12 F
14 13 11 10 F
15 14 13 11 F
19 14 13 11 F
19 18 20 21 F
17 18 20 21 F
20 21 22 23 F
36 21 22 23 F
36 21 22 27 F
20 21 22 27 F
29 28 25 24 F
29 28 25 26 F
25 28 29 35 F
25 28 29 30 F

