68
MOLECULE0-opt-2-3-7-8-171.log	Energy: -992569.7052077
C          0.39822        2.58224       -2.02824
C          1.58736        2.14744       -1.46201
C          2.32186        3.03158       -0.66651
C          1.79829        4.31196       -0.47231
N          0.65513        4.74183       -1.00630
C         -0.02191        3.88582       -1.77318
C          3.59144        2.59221       -0.03731
C          4.60646        3.46717        0.34153
C          5.73233        2.88584        0.92066
N          5.87074        1.58095        1.11388
C          4.83354        0.82427        0.70357
N          3.71122        1.27368        0.14221
N          4.99869       -0.51987        0.89825
C          4.14602       -1.59178        0.57876
C          4.70974       -2.87805        0.46633
C          3.85782       -3.93157        0.14809
C          2.49259       -3.76873       -0.07070
C          1.95699       -2.48913        0.05293
C          2.77905       -1.41448        0.39265
N          0.60277       -2.16937       -0.16002
C         -0.41443       -2.95994       -0.62543
C         -1.69351       -2.21244       -0.88132
C         -1.72572       -0.86863       -1.26530
C         -2.93978       -0.23252       -1.49009
C         -4.14804       -0.91049       -1.32081
C         -4.10443       -2.26365       -0.97577
C         -2.89463       -2.91151       -0.76354
C         -5.47873       -0.18939       -1.48060
N         -6.02407        0.49746       -0.32242
C         -5.37395        1.73232        0.10205
C         -4.30799        1.53452        1.19331
N         -4.79555        0.76965        2.33750
C         -5.67719        1.52203        3.21256
C         -5.35518       -0.50024        1.88142
C         -6.44107       -0.32764        0.80602
O         -0.32135       -4.16197       -0.81270
C          6.18468       -3.10754        0.67534
H         -0.19121        1.93123       -2.66662
H          1.96538        1.14320       -1.62822
H          2.31516        5.02485        0.16717
H         -0.94639        4.26267       -2.20537
H          4.54706        4.53594        0.17935
H          6.56836        3.50463        1.24046
H          5.90609       -0.74613        1.27717
H          4.28169       -4.92813        0.05414
H          1.85872       -4.60389       -0.33290
H          2.36078       -0.42177        0.48310
H          0.35596       -1.21935        0.07301
H         -0.80272       -0.31652       -1.42551
H         -2.94867        0.81139       -1.79628
H         -5.03541       -2.81524       -0.86679
H         -2.85961       -3.96501       -0.50554
H         -5.38649        0.55320       -2.28283
H         -6.23116       -0.91632       -1.81159
H         -4.93473        2.22085       -0.77543
H         -6.15254        2.41033        0.48187
H         -3.94729        2.50829        1.54650
H         -3.44843        0.99583        0.77812
H         -6.62293        1.86413        2.75660
H         -5.14669        2.40811        3.57779
H         -5.93235        0.90365        4.08010
H         -5.76517       -1.03575        2.74607
H         -4.53074       -1.10196        1.48074
H         -7.32605        0.14197        1.26016
H         -6.76288       -1.30529        0.42936
H          6.49549       -2.89150        1.70687
H          6.79373       -2.48484        0.00822
H          6.44234       -4.15108        0.47763
