68
MOLECULE0-opt-25-28-29-35-266.log	Energy: -992571.3959190
C         -0.47324        4.27558       -0.77006
C          0.87142        4.19273       -0.42931
C          1.54767        2.99072       -0.63100
C          0.82092        1.92684       -1.18194
N         -0.46818        1.99075       -1.51050
C         -1.09690        3.15081       -1.29901
C          2.96967        2.78934       -0.25393
C          3.90076        3.81924       -0.15454
C          5.18673        3.44652        0.23506
N          5.54602        2.19711        0.49606
C          4.57255        1.27477        0.35374
N          3.31244        1.52361       -0.00250
N          4.96133       -0.01133        0.61171
C          4.24534       -1.21734        0.49398
C          4.96887       -2.42719        0.47976
C          4.24802       -3.60999        0.33930
C          2.86224       -3.65109        0.19664
C          2.17122       -2.44338        0.21756
C          2.85979       -1.24343        0.39312
N          0.78466       -2.30528        0.04002
C         -0.15539       -3.23233       -0.33061
C         -1.47472       -2.60078       -0.67519
C         -1.54971       -1.35760       -1.31031
C         -2.78199       -0.77831       -1.57434
C         -3.96547       -1.40975       -1.19199
C         -3.88389       -2.67744       -0.60896
C         -2.65383       -3.27435       -0.35847
C         -5.30248       -0.70402       -1.34919
N         -5.69273        0.22604       -0.30038
C         -5.02579        1.52271       -0.24789
C         -3.81609        1.57761        0.70290
N         -4.11376        1.06851        2.03880
C         -4.90280        1.97749        2.85108
C         -4.67986       -0.27489        1.93948
C         -5.91474       -0.34042        1.02542
O          0.03647       -4.43621       -0.36419
C          6.47166       -2.44320        0.59936
H         -1.03253        5.19224       -0.61685
H          1.37670        5.04569        0.01456
H          1.32488        0.98148       -1.36629
H         -2.15197        3.17779       -1.56291
H          3.66181        4.85111       -0.38012
H          5.96831        4.19662        0.33813
H          5.94250       -0.07747        0.83785
H          4.79606       -4.54879        0.32673
H          2.33310       -4.58514        0.06659
H          2.31494       -0.31192        0.41789
H          0.44623       -1.35880        0.13128
H         -0.65321       -0.83231       -1.62659
H         -2.80974        0.19126       -2.06503
H         -4.79868       -3.19751       -0.33323
H         -2.59021       -4.25709        0.09808
H         -5.30806       -0.14859       -2.29487
H         -6.09481       -1.45983       -1.42388
H         -4.72388        1.80431       -1.26382
H         -5.76721        2.26777        0.07808
H         -3.45896        2.61151        0.79271
H         -2.99101        0.98257        0.29584
H         -5.91273        2.20521        2.46677
H         -4.36507        2.92681        2.95163
H         -5.01886        1.55037        3.85316
H         -4.93865       -0.62360        2.94666
H         -3.89788       -0.93832        1.55210
H         -6.74358        0.20799        1.49737
H         -6.24848       -1.37820        0.91426
H          6.81727       -2.03127        1.55741
H          6.95200       -1.86721       -0.20228
H          6.85175       -3.46592        0.53600
