68
MOLECULE0-opt-23-22-21-20-126.log	Energy: -992571.9110541
C         -0.60491        4.16847       -0.06511
C          0.77379        4.15664        0.10513
C          1.47659        2.98206       -0.16078
C          0.73645        1.87421       -0.59750
N         -0.58487        1.86862       -0.75307
C         -1.24208        3.00403       -0.48665
C          2.94089        2.84665        0.03018
C          3.83067        3.91798        0.08710
C          5.16928        3.59432        0.29766
N          5.62098        2.35162        0.42099
C          4.68087        1.39177        0.32553
N          3.37660        1.59088        0.15445
N          5.14912        0.10752        0.41982
C          4.45966       -1.10126        0.20346
C          5.19216       -2.22426       -0.22705
C          4.48925       -3.40262       -0.46217
C          3.10932       -3.51095       -0.31108
C          2.40630       -2.39011        0.12535
C          3.08769       -1.20731        0.41064
N          1.01059       -2.35004        0.31462
C          0.06351       -3.22556       -0.15347
C         -1.34931       -2.80252        0.13636
C         -2.33946       -3.16901       -0.77420
C         -3.66132       -2.80469       -0.55278
C         -4.03073       -2.08538        0.58607
C         -3.03763       -1.75037        1.50819
C         -1.71006       -2.09368        1.28536
C         -5.48347       -1.69745        0.82007
N         -5.91145       -0.36507        0.43479
C         -5.85141       -0.03445       -0.98347
C         -4.58478        0.73926       -1.38221
N         -4.36525        1.92279       -0.55064
C         -5.28576        3.01494       -0.81981
C         -4.30997        1.52365        0.85434
C         -5.56159        0.75190        1.30164
O          0.31703       -4.25026       -0.76444
C          6.68204       -2.15072       -0.44446
H         -1.18270        5.06390        0.13972
H          1.28862        5.04340        0.46462
H          1.25758        0.95072       -0.83571
H         -2.32379        2.95087       -0.61342
H          3.51850        4.94748       -0.03687
H          5.92017        4.37911        0.36429
H          6.15520        0.06437        0.48135
H          5.04181       -4.27561       -0.80024
H          2.58994       -4.43021       -0.54096
H          2.54187       -0.34207        0.75795
H          0.65803       -1.45744        0.62935
H         -2.05675       -3.74640       -1.64843
H         -4.42429       -3.09674       -1.27076
H         -3.30839       -1.22593        2.42188
H         -0.96412       -1.84642        2.03619
H         -6.11955       -2.41198        0.28159
H         -5.71489       -1.81775        1.88529
H         -5.92547       -0.95967       -1.56515
H         -6.73698        0.56803       -1.23647
H         -4.64697        1.05122       -2.43148
H         -3.70198        0.09742       -1.27868
H         -6.34778        2.80510       -0.60875
H         -5.20477        3.29396       -1.87583
H         -4.99365        3.88342       -0.21828
H         -4.17923        2.42086        1.47230
H         -3.41585        0.90121        0.97855
H         -6.41502        1.44658        1.32717
H         -5.43116        0.37947        2.32380
H          7.22689       -1.94282        0.48666
H          6.95039       -1.36997       -1.16720
H          7.06234       -3.09941       -0.83181
