68
MOLECULE0-opt-29-28-25-24-337.log	Energy: -992573.9403758
C         -0.96282        4.41522        0.18293
C          0.42272        4.36423        0.24475
C          1.08359        3.21765       -0.19918
C          0.29224        2.16978       -0.68349
N         -1.03826        2.20373       -0.74669
C         -1.64947        3.31346       -0.31726
C          2.56237        3.09969       -0.15748
C          3.38964        4.21836       -0.22359
C          4.75861        3.98042       -0.14657
N          5.28177        2.77018       -0.02780
C          4.39696        1.75080        0.00267
N          3.06687        1.86285       -0.05400
N          4.99566        0.52555        0.11206
C          4.48392       -0.78095        0.14542
C          5.41275       -1.83937        0.24151
C          4.91475       -3.13753        0.26545
C          3.55663       -3.43453        0.19482
C          2.66018       -2.37426        0.09818
C          3.12288       -1.05583        0.08091
N          1.26839       -2.52672       -0.00834
C          0.49939       -3.66504       -0.00944
C         -0.95373       -3.35997       -0.23386
C         -1.35595       -2.31929       -1.07830
C         -2.69037       -1.96392       -1.16355
C         -3.65501       -2.63402       -0.40733
C         -3.26145       -3.71406        0.38010
C         -1.91994       -4.08399        0.46029
C         -5.06900       -2.08138       -0.40806
N         -4.99728       -0.64574       -0.22784
C         -6.08843        0.16492       -0.72823
C         -5.59422        1.61758       -0.80823
N         -5.07642        2.14006        0.45463
C         -6.12308        2.51992        1.38948
C         -4.09993        1.21423        1.02771
C         -4.59383       -0.22990        1.10468
O          0.92618       -4.79147        0.17991
C          6.89654       -1.58131        0.31522
H         -1.50662        5.28757        0.52918
H          0.98147        5.19822        0.65953
H          0.77276        1.26559       -1.04926
H         -2.73811        3.31288       -0.35649
H          3.00118        5.22075       -0.35167
H          5.46825        4.80452       -0.18544
H          6.00001        0.61496        0.15000
H          5.62194       -3.95972        0.34100
H          3.19732       -4.45384        0.21665
H          2.42543       -0.23147        0.01886
H          0.75559       -1.65817       -0.03541
H         -0.62470       -1.78058       -1.67528
H         -2.99128       -1.11634       -1.77025
H         -4.00202       -4.24811        0.97071
H         -1.60566       -4.90602        1.09577
H         -5.54740       -2.27720       -1.37589
H         -5.67975       -2.59115        0.36045
H         -6.36045       -0.17847       -1.73297
H         -6.99685        0.09279       -0.09767
H         -6.39451        2.27808       -1.16013
H         -4.77987        1.64816       -1.54302
H         -6.76654        1.69049        1.73012
H         -6.76787        3.27204        0.92234
H         -5.66578        2.97251        2.27565
H         -3.80749        1.58086        2.01789
H         -3.20831        1.21199        0.39002
H         -5.42230       -0.33881        1.83244
H         -3.77386       -0.86962        1.44584
H          7.16944       -0.97767        1.19125
H          7.27209       -1.06307       -0.57732
H          7.44381       -2.52411        0.39232
