68
MOLECULE0-opt-23-22-21-20-186.log	Energy: -992570.4031049
C         -1.22718        4.80703       -0.67004
C         -2.52823        4.35126       -0.49570
C         -2.73327        3.05545       -0.02514
C         -1.59783        2.28417        0.25713
N         -0.34575        2.70373        0.08529
C         -0.17493        3.94653       -0.37596
C         -4.08150        2.45760        0.14125
C         -5.24432        3.19824        0.33436
C         -6.42597        2.46553        0.44049
N         -6.48166        1.14179        0.38265
C         -5.29571        0.52175        0.21625
N         -4.11478        1.12417        0.08418
N         -5.36264       -0.84375        0.18250
C         -4.33223       -1.80137        0.12811
C         -4.63985       -3.12758        0.49297
C         -3.61009       -4.06290        0.45728
C         -2.30203       -3.74818        0.09640
C         -2.02336       -2.43316       -0.26701
C         -3.04054       -1.47821       -0.27320
N         -0.75094       -1.95526       -0.62843
C          0.46501       -2.58320       -0.55779
C          1.63434       -1.68537       -0.85286
C          2.79043       -2.27819       -1.36307
C          3.89911       -1.50141       -1.66989
C          3.89506       -0.12091       -1.45167
C          2.73896        0.46221       -0.93257
C          1.62120       -0.30550       -0.62900
C          5.12657        0.72111       -1.75321
N          6.11161        0.90643       -0.70165
C          6.90968       -0.25174       -0.31608
C          6.33440       -1.03315        0.87751
N          6.04317       -0.18334        2.02909
C          7.22464        0.24606        2.75572
C          5.16642        0.91228        1.62514
C          5.72478        1.72282        0.44318
O          0.60828       -3.76763       -0.30068
C         -6.03124       -3.52119        0.91977
H         -1.03029        5.80581       -1.04450
H         -3.37021        4.98824       -0.75125
H         -1.72455        1.27809        0.64812
H          0.85477        4.26601       -0.51860
H         -5.24570        4.27810        0.41656
H         -7.37733        2.97378        0.58414
H         -6.30004       -1.18660        0.33040
H         -3.83496       -5.08912        0.73670
H         -1.51993       -4.49388        0.10016
H         -2.82116       -0.46172       -0.56352
H         -0.73731       -0.99702       -0.94361
H          2.79813       -3.35201       -1.51947
H          4.78642       -1.97354       -2.08580
H          2.70373        1.53372       -0.75031
H          0.76346        0.19905       -0.19122
H          5.64907        0.28039       -2.61152
H          4.79767        1.72011       -2.06675
H          7.01973       -0.91120       -1.18454
H          7.91914        0.10368       -0.05999
H          7.03643       -1.81715        1.18600
H          5.39952       -1.52390        0.58267
H          7.92582        0.88465        2.18980
H          7.77796       -0.63800        3.09095
H          6.91355        0.80334        3.64622
H          5.00208        1.57059        2.48686
H          4.19751        0.47831        1.35218
H          6.61383        2.27815        0.77765
H          4.99252        2.46895        0.11408
H         -6.77117       -3.36456        0.12285
H         -6.36524       -2.95592        1.79949
H         -6.06680       -4.58157        1.18205
