68
MOLECULE0-opt-15-14-13-11-303.log	Energy: -992566.5946684
C         -7.80345        2.47543       -2.16521
C         -7.43206        2.20413       -0.85538
C         -6.22141        1.55419       -0.61399
C         -5.44528        1.20014       -1.72546
N         -5.78844        1.45724       -2.98665
C         -6.94907        2.08472       -3.19116
C         -5.74825        1.22279        0.75237
C         -6.23923        1.84908        1.89891
C         -5.70739        1.42300        3.11081
N         -4.78255        0.47654        3.21607
C         -4.37108       -0.05061        2.04779
N         -4.80323        0.28179        0.83013
N         -3.41964       -1.02670        2.15041
C         -2.71858       -1.61742        1.06628
C         -3.37162       -2.42910        0.12760
C         -2.58409       -2.98918       -0.87814
C         -1.21048       -2.79962       -0.96515
C         -0.57518       -2.00952       -0.00521
C         -1.34260       -1.41739        0.99882
N          0.81243       -1.76762        0.01760
C          1.77338       -2.21787       -0.85260
C          3.17774       -1.82058       -0.49466
C          3.60556       -1.59390        0.81571
C          4.92813       -1.25096        1.07170
C          5.84978       -1.11526        0.03281
C          5.42067       -1.37867       -1.27057
C          4.10426       -1.72943       -1.53451
C          7.28229       -0.68048        0.30791
N          7.57880        0.74152        0.30580
C          7.08360        1.53849        1.42174
C          5.72443        2.20698        1.15451
N          5.69646        2.96561       -0.09284
C          6.40989        4.22905       -0.02775
C          6.11155        2.10988       -1.20147
C          7.47840        1.44441       -0.96824
O          1.53746       -2.87979       -1.84988
C         -4.84718       -2.70858        0.19444
H         -8.74110        2.97305       -2.38911
H         -8.09078        2.47839       -0.03666
H         -4.50092        0.68595       -1.57019
H         -7.20823        2.28046       -4.22945
H         -6.97685        2.64055        1.86326
H         -6.04059        1.86864        4.04618
H         -3.02151       -1.10928        3.07441
H         -3.06498       -3.61919       -1.62200
H         -0.63375       -3.25626       -1.75632
H         -0.87199       -0.77553        1.74097
H          1.12059       -1.11276        0.72023
H          2.92424       -1.72766        1.65230
H          5.25093       -1.09121        2.09794
H          6.13169       -1.30727       -2.09047
H          3.77337       -1.94564       -2.54493
H          7.58966       -1.07449        1.28453
H          7.93720       -1.14862       -0.43784
H          7.02797        0.90363        2.31365
H          7.83010        2.31766        1.63707
H          5.46682        2.87909        1.98218
H          4.94200        1.44119        1.09404
H          7.49588        4.15266        0.15603
H          5.98007        4.84165        0.77224
H          6.27032        4.76532       -0.97255
H          6.13696        2.70872       -2.11993
H          5.34239        1.33966       -1.33230
H          8.26220        2.21589       -0.99163
H          7.70450        0.74233       -1.77876
H         -5.41709       -1.89116       -0.25939
H         -5.18404       -2.80149        1.23202
H         -5.08808       -3.63690       -0.33149
