68
MOLECULE0-opt-22-21-20-18-220.log	Energy: -992571.7697202
C          0.46880        4.11099       -0.84634
C         -0.90934        4.10563       -0.66678
C         -1.49115        3.05512        0.04022
C         -0.63334        2.08407        0.57177
N          0.68562        2.07327        0.40438
C          1.22188        3.06624       -0.31736
C         -2.95759        2.88349        0.16770
C         -3.86985        3.93338        0.22570
C         -5.21390        3.57194        0.30630
N         -5.64208        2.31584        0.31495
C         -4.67590        1.37756        0.25654
N         -3.36603        1.61232        0.20136
N         -5.12948        0.08575        0.24110
C         -4.43043       -1.12258        0.06252
C         -5.17605       -2.28678       -0.21525
C         -4.47551       -3.47482       -0.40229
C         -3.08713       -3.56559       -0.33020
C         -2.37305       -2.40527       -0.04424
C         -3.04506       -1.20046        0.15698
N         -0.97335       -2.33817        0.08848
C         -0.02655       -3.27539       -0.23340
C          1.37742       -2.83152        0.07016
C          1.68914       -2.03470        1.17569
C          3.00577       -1.67561        1.43148
C          4.03736       -2.07668        0.58088
C          3.71697       -2.88076       -0.51555
C          2.40546       -3.26708       -0.76439
C          5.47789       -1.66318        0.84507
N          5.89772       -0.33504        0.43698
C          5.54854        0.79925        1.28218
C          4.29512        1.56364        0.82692
N          4.33806        1.92774       -0.58996
C          5.25408        3.01534       -0.89248
C          4.56022        0.72559       -1.39352
C          5.83347       -0.03267       -0.98646
O         -0.27236       -4.36342       -0.72710
C         -6.67969       -2.24897       -0.31924
H          0.95360        4.89840       -1.41395
H         -1.52799        4.88228       -1.10867
H         -1.05339        1.27643        1.16657
H          2.29477        2.98833       -0.49357
H         -3.56257        4.97210        0.23196
H         -5.98634        4.33612        0.36491
H         -6.13707        0.03502        0.25111
H         -5.04024       -4.37704       -0.62360
H         -2.57358       -4.50150       -0.49952
H         -2.48575       -0.30019        0.35745
H         -0.61767       -1.42042        0.31528
H          0.91122       -1.72698        1.86910
H          3.23581       -1.08267        2.31353
H          4.51020       -3.22222       -1.17688
H          2.16113       -3.91348       -1.60134
H          5.68208       -1.75298        1.91871
H          6.13736       -2.38349        0.34307
H          5.42191        0.44774        2.31212
H          6.40266        1.49370        1.29097
H          4.17660        2.47819        1.42101
H          3.39392        0.95896        0.97693
H          6.31750        2.81421       -0.68020
H          4.96149        3.89852       -0.31323
H          5.16898        3.26548       -1.95562
H          4.61178        1.01065       -2.45131
H          3.68582        0.07639       -1.26497
H          6.71469        0.56958       -1.25473
H          5.90937       -0.96855       -1.55071
H         -7.02011       -1.56006       -1.10337
H         -7.15225       -1.93969        0.62297
H         -7.07377       -3.23854       -0.56394
