68
MOLECULE0-opt-14-13-11-12-200.log	Energy: -992567.9115409
C         -8.41875       -3.55731        0.18010
C         -7.07152       -3.22823        0.11827
C         -6.70773       -1.90478       -0.13126
C         -7.73816       -0.97275       -0.30142
N         -9.03396       -1.27479       -0.24869
C         -9.35736       -2.54852       -0.01071
C         -5.29147       -1.47185       -0.21608
C         -4.25722       -2.36038       -0.53971
C         -2.98194       -1.82647       -0.58518
N         -2.70865       -0.54379       -0.34691
C         -3.76559        0.22492       -0.05942
N         -5.04543       -0.18560        0.01758
N         -3.61107        1.55941        0.19406
C         -2.48131        2.39159        0.23981
C         -2.70357        3.75460        0.52871
C         -1.59653        4.59270        0.58502
C         -0.29571        4.14920        0.36985
C         -0.09933        2.80058        0.08284
C         -1.18790        1.92634        0.01851
N          1.16515        2.23551       -0.17479
C          2.40370        2.81102       -0.04913
C          3.54207        1.90980       -0.43727
C          3.43741        0.93457       -1.43204
C          4.52991        0.13438       -1.74510
C          5.74097        0.27350       -1.06563
C          5.84786        1.28006       -0.10265
C          4.76623        2.09383        0.20643
C          6.90558       -0.66606       -1.34324
N          6.96770       -1.91130       -0.59660
C          6.00363       -2.95244       -0.93161
C          4.73435       -2.93146       -0.06247
N          5.02091       -2.91557        1.36906
C          5.46388       -4.19475        1.89452
C          5.91825       -1.80578        1.68082
C          7.20580       -1.81717        0.83923
O          2.59854        3.94574        0.35474
C         -4.09090        4.29410        0.77001
H         -8.73766       -4.57475        0.37993
H         -6.31625       -3.99038        0.28639
H         -7.48754        0.06668       -0.49266
H        -10.42147       -2.76978        0.03392
H         -4.43583       -3.40300       -0.76934
H         -2.12710       -2.45335       -0.83078
H         -4.49685        1.99821        0.39597
H         -1.75471        5.64504        0.80664
H          0.54440        4.82552        0.42940
H         -1.04042        0.87708       -0.20204
H          1.15349        1.24577       -0.37075
H          2.51504        0.81909       -1.99570
H          4.43938       -0.61355       -2.52955
H          6.79334        1.42441        0.41520
H          4.85077        2.88137        0.94810
H          6.90515       -0.92655       -2.40897
H          7.84281       -0.12791       -1.15329
H          5.74160       -2.86380       -1.99218
H          6.50277       -3.92552       -0.81084
H          4.11102       -3.80523       -0.28921
H          4.14558       -2.03537       -0.29113
H          6.41311       -4.57813        1.48017
H          4.69122       -4.94733        1.70218
H          5.58656       -4.11027        2.97969
H          6.16630       -1.84237        2.74846
H          5.36967       -0.87370        1.50172
H          7.82317       -2.67763        1.13753
H          7.79920       -0.91844        1.04207
H         -4.57133        3.82847        1.64108
H         -4.75040        4.14374       -0.09509
H         -4.05371        5.36928        0.96191
