%RWF=/scratch/bdw2292/Gau-MOLECULE0/,100GB
%Nosave
%Chk=MOLECULE0-opt-29-28-25-24-305.chk
%Mem=20GB
%Nproc=6
#P opt=(,maxcycle=400) wB97XD/6-31G* MaxDisk=100GB

MOLECULE0 Rotatable Bond Optimization on node37.bme.utexas.edu

0 1
 C   -0.246206    4.485811    1.931845
 C    1.050495    4.167031    2.357959
 C    1.632715    2.938693    1.985669
 C    0.834180    2.106676    1.162557
 N   -0.402841    2.394492    0.739443
 C   -0.929686    3.564966    1.129682
 C    3.022888    2.515869    2.394194
 C    3.934437    3.303883    3.115048
 C    5.187675    2.725772    3.344264
 N    5.540552    1.509012    2.940018
 C    4.594745    0.813014    2.274536
 N    3.372181    1.275860    1.997838
 N    4.969296   -0.461795    1.875664
 C    4.320228   -1.490744    1.101272
 C    5.101012   -2.553966    0.553799
 C    4.424437   -3.520718   -0.209661
 C    3.044991   -3.504397   -0.446469
 C    2.292051   -2.469311    0.116423
 C    2.938769   -1.479665    0.873347
 N    0.883729   -2.288332   -0.026957
 C   -0.108262   -3.168856   -0.385144
 C   -1.470561   -2.583987   -0.701811
 C   -1.644949   -1.342136   -1.334602
 C   -2.926635   -0.831856   -1.549331
 C   -4.075196   -1.550326   -1.168801
 C   -3.886028   -2.810372   -0.568793
 C   -2.607698   -3.327107   -0.346089
 C   -5.474599   -0.958936   -1.343305
 N   -6.003927   -0.039947   -0.319447
 C   -5.493021    1.347723   -0.249479
 C   -4.379892    1.616398    0.796848
 N   -4.693115    1.117377    2.157109
 C   -5.522943    1.989113    2.998870
 C   -5.108716   -0.302527    2.070719
 C   -6.238165   -0.568644    1.042988
 O    0.070838   -4.374781   -0.431236
 C    6.604046   -2.671660    0.740382
 H   -0.715844    5.423922    2.212619
 H    1.575524    4.883769    2.984684
 H    1.229197    1.162256    0.805878
 H   -1.936549    3.775393    0.773716
 H    3.728167    4.309311    3.460702
 H    5.956830    3.279398    3.882294
 H    5.931196   -0.624766    2.133386
 H    4.989486   -4.342325   -0.648517
 H    2.560134   -4.276759   -1.031279
 H    2.359259   -0.682842    1.312725
 H    0.579343   -1.331278    0.086519
 H   -0.773493   -0.765141   -1.633794
 H   -3.026773    0.149185   -2.013788
 H   -4.747165   -3.396562   -0.248683
 H   -2.469809   -4.294722    0.129926
 H   -5.505852   -0.422769   -2.302788
 H   -6.193441   -1.787869   -1.419510
 H   -5.179949    1.719079   -1.305212
 H   -6.717327    2.257228    0.213344
 H   -4.135276    2.643001    0.847963
 H   -3.200025    0.931826    0.372267
 H   -6.531056    2.093688    2.582220
 H   -5.068126    2.983273    3.076855
 H   -5.599733    1.575016    4.010876
 H   -5.373320   -0.668290    3.069533
 H   -3.896048   -1.087261    1.608683
 H   -7.497860    0.141472    1.599461
 H   -6.495638   -1.778578    0.994221
 H    6.864793   -2.824058    1.797120
 H    7.125543   -1.766550    0.398362
 H    7.040784   -3.512778    0.184468

24 25 28 29 F
26 25 28 29 F
12 11 13 14 F
10 11 13 14 F
19 18 20 21 F
17 18 20 21 F
36 21 22 23 F
20 21 22 23 F
36 21 22 27 F
20 21 22 27 F
25 28 29 35 F
25 28 29 30 F

