68
MOLECULE0-opt-29-28-25-24-247.log	Energy: -992571.3958626
C         -0.47337        4.27548       -0.77132
C          0.87120        4.19271       -0.43022
C          1.54749        2.99063       -0.63130
C          0.82087        1.92658       -1.18211
N         -0.46814        1.99041       -1.51103
C         -1.09691        3.15053       -1.30005
C          2.96938        2.78937       -0.25376
C          3.90046        3.81927       -0.15448
C          5.18640        3.44662        0.23532
N          5.54570        2.19726        0.49654
C          4.57223        1.27489        0.35433
N          3.31219        1.52366       -0.00216
N          4.96097       -0.01112        0.61278
C          4.24519       -1.21721        0.49449
C          4.96891       -2.42693        0.47971
C          4.24826       -3.60977        0.33868
C          2.86249       -3.65101        0.19591
C          2.17127       -2.44342        0.21742
C          2.85963       -1.24345        0.39366
N          0.78472       -2.30544        0.03966
C         -0.15530       -3.23257       -0.33087
C         -1.47471       -2.60106       -0.67522
C         -1.54975       -1.35798       -1.31055
C         -2.78207       -0.77863       -1.57434
C         -3.96550       -1.40992       -1.19158
C         -3.88387       -2.67749       -0.60834
C         -2.65380       -3.27446       -0.35806
C         -5.30249       -0.70410       -1.34874
N         -5.69272        0.22598       -0.29995
C         -5.02589        1.52273       -0.24777
C         -3.81597        1.57776        0.70280
N         -4.11333        1.06880        2.03883
C         -4.90226        1.97780        2.85120
C         -4.67938       -0.27464        1.93977
C         -5.91442       -0.34036        1.02594
O          0.03666       -4.43643       -0.36464
C          6.47170       -2.44273        0.59928
H         -1.03269        5.19220       -0.61857
H          1.37638        5.04580        0.01351
H          1.32489        0.98118       -1.36607
H         -2.15189        3.17744       -1.56433
H          3.66155        4.85110       -0.38030
H          5.96801        4.19672        0.33817
H          5.94219       -0.07721        0.83874
H          4.79645       -4.54847        0.32562
H          2.33351       -4.58508        0.06535
H          2.31462       -0.31204        0.41881
H          0.44618       -1.35901        0.13101
H         -0.65328       -0.83289       -1.62723
H         -2.80987        0.19087       -2.06514
H         -4.79863       -3.19746       -0.33229
H         -2.59018       -4.25710        0.09868
H         -5.30800       -0.14868       -2.29441
H         -6.09485       -1.45989       -1.42348
H         -4.72417        1.80422       -1.26376
H         -5.76728        2.26776        0.07826
H         -3.45873        2.61167        0.79242
H         -2.99109        0.98261        0.29562
H         -5.91233        2.20534        2.46716
H         -4.36463        2.92721        2.95146
H         -5.01796        1.55079        3.85336
H         -4.93801       -0.62325        2.94702
H         -3.89744       -0.93808        1.55233
H         -6.74324        0.20805        1.49800
H         -6.24809       -1.37817        0.91492
H          6.81725       -2.03122        1.55753
H          6.95192       -1.86627       -0.20208
H          6.85196       -3.46536        0.53544
