%RWF=/scratch/bdw2292/Gau-MOLECULE0/,100GB
%Nosave
%Chk=MOLECULE0-opt-25-28-29-35-086.chk
%Mem=20GB
%Nproc=6
#P opt=(maxcycle=5,Loose) wB97XD/6-31G* MaxDisk=100GB

MOLECULE0 Rotatable Bond Optimization on node37.bme.utexas.edu

0 1
 C    0.001632    4.642658   -1.238915
 C    1.318273    4.494307   -0.781688
 C    1.865394    3.206314   -0.616199
 C    1.013478    2.128089   -0.963098
 N   -0.243297    2.247966   -1.409690
 C   -0.734709    3.490004   -1.535629
 C    3.269956    2.953531   -0.125178
 C    4.235734    3.938295    0.136595
 C    5.486653    3.465687    0.549521
 N    5.788867    2.181352    0.718177
 C    4.792454    1.305706    0.469554
 N    3.569270    1.653485    0.059912
 N    5.105501   -0.030465    0.672377
 C    4.376473   -1.258631    0.466087
 C    5.084528   -2.497522    0.415233
 C    4.327650   -3.660036    0.188977
 C    2.937854   -3.667343    0.020434
 C    2.254934   -2.449771    0.104477
 C    2.983802   -1.269669    0.321299
 N    0.843101   -2.266041   -0.038728
 C   -0.151328   -3.132450   -0.427375
 C   -1.513148   -2.535485   -0.726610
 C   -1.684215   -1.269647   -1.312681
 C   -2.964760   -0.760224   -1.536012
 C   -4.116654   -1.501434   -1.211528
 C   -3.931236   -2.772846   -0.635277
 C   -2.653714   -3.290644   -0.407528
 C   -5.515047   -0.919725   -1.422864
 N   -6.013034   -0.044338   -0.342002
 C   -7.401407   -0.221166    0.136332
 C   -8.428413    0.641664   -0.640270
 N   -8.090857    2.084095   -0.719981
 C   -8.497655    2.908517    0.424565
 C   -6.687485    2.239238   -1.168560
 C   -5.653483    1.389878   -0.387215
 O    0.025342   -4.338249   -0.506343
 C    6.592114   -2.606082    0.567160
 H   -0.442794    5.625698   -1.363830
 H    1.885440    5.391416   -0.545906
 H    1.380089    1.109073   -0.900975
 H   -1.759186    3.561706   -1.897660
 H    4.070537    5.000954    0.007840
 H    6.296861    4.165001    0.754278
 H    6.075093   -0.113463    0.939313
 H    4.836000   -4.621708    0.129710
 H    2.392580   -4.585812   -0.159693
 H    2.464273   -0.327230    0.384529
 H    0.532625   -1.315664    0.107402
 H   -0.813851   -0.673378   -1.577232
 H   -3.056151    0.233563   -1.974191
 H   -4.795363   -3.373599   -0.352574
 H   -2.519637   -4.274228    0.035988
 H   -5.540201   -0.364461   -2.371266
 H   -6.222749   -1.751578   -1.546955
 H   -7.671971   -1.283530    0.142077
 H   -7.459051    0.256981    1.609173
 H   -9.477506    0.521988   -0.217010
 H   -8.430802    0.089914   -2.102395
 H   -7.950373    2.621156    1.329712
 H   -9.571670    2.793844    0.610453
 H   -8.305435    3.967115    0.216137
 H   -6.328039    3.582362   -1.078272
 H   -6.624245    1.820488   -2.604656
 H   -5.676680    1.923070    1.070870
 H   -4.707548    1.509978   -0.716344
 H    6.917012   -2.289032    1.568412
 H    7.117401   -1.977413   -0.165552
 H    6.964773   -3.629832    0.424287

25 28 29 35 F
25 28 29 30 F
12 11 13 14 F
10 11 13 14 F
19 18 20 21 F
17 18 20 21 F
36 21 22 23 F
20 21 22 23 F
36 21 22 27 F
20 21 22 27 F
24 25 28 29 F
26 25 28 29 F

