68
MOLECULE0-opt-14-13-11-12-088.log	Energy: -992570.2080122
C          0.08990        4.46432       -1.50091
C          1.41923        4.25436       -1.15592
C          1.76883        3.08236       -0.48623
C          0.73955        2.17807       -0.19385
N         -0.53590        2.35892       -0.52956
C         -0.84488        3.48760       -1.17396
C          3.16919        2.75307       -0.11893
C          4.15753        3.71157        0.08452
C          5.42570        3.22651        0.40137
N          5.71349        1.93809        0.51814
C          4.68130        1.09311        0.31636
N          3.43480        1.44923        0.00371
N          5.00148       -0.23004        0.44985
C          4.21273       -1.38855        0.33416
C          4.82709       -2.63593        0.57186
C          4.03904       -3.77757        0.45810
C          2.68389       -3.74558        0.13437
C          2.10017       -2.50276       -0.09100
C          2.86579       -1.34001       -0.00386
N          0.74642       -2.29148       -0.40416
C         -0.27259       -3.19294       -0.56332
C         -1.59456       -2.53826       -0.85505
C         -1.70519       -1.30651       -1.50746
C         -2.94896       -0.71738       -1.68559
C         -4.10822       -1.32949       -1.20875
C         -3.99484       -2.58617       -0.60892
C         -2.75491       -3.18828       -0.43500
C         -5.45015       -0.61965       -1.29708
N         -5.79342        0.30446       -0.22881
C         -5.09091        1.58326       -0.17872
C         -3.85932        1.59487        0.74403
N         -4.14663        1.08472        2.08261
C         -4.89337        2.00817        2.91742
C         -4.74910       -0.24189        1.98642
C         -6.00247       -0.26917        1.09599
O         -0.14822       -4.40110       -0.44752
C          6.28584       -2.73580        0.94009
H         -0.21570        5.36213       -2.02744
H          2.17668        4.98320       -1.42956
H          0.97126        1.26768        0.35208
H         -1.89231        3.61344       -1.43967
H          3.96373        4.77523        0.02391
H          6.25047        3.91542        0.57274
H          5.97381       -0.36150        0.68528
H          4.50436       -4.74363        0.63677
H          2.09599       -4.65021        0.06558
H          2.41317       -0.38160       -0.20564
H          0.47249       -1.32073       -0.40287
H         -0.82821       -0.80266       -1.90465
H         -3.01516        0.24498       -2.18703
H         -4.89118       -3.09217       -0.25727
H         -2.66388       -4.16054        0.03845
H         -5.49646       -0.05954       -2.23920
H         -6.24548       -1.37453       -1.34139
H         -4.80464        1.86720       -1.19846
H         -5.80645        2.34319        0.17001
H         -3.46733        2.61548        0.83302
H         -3.05702        0.98430        0.31710
H         -5.90657        2.26336        2.55912
H         -4.32992        2.94328        3.00884
H         -4.99647        1.57912        3.92028
H         -4.99848       -0.59112        2.99594
H         -3.99176       -0.92252        1.58028
H         -6.80737        0.29658        1.58889
H         -6.36641       -1.29673        0.98265
H          6.51269       -2.20358        1.87356
H          6.94037       -2.33010        0.15704
H          6.57213       -3.77998        1.08860
