68
MOLECULE0-opt-29-28-25-24-029.log	Energy: -992567.8048455
C          0.19618        4.25481       -0.75178
C         -1.17334        4.06907       -0.61265
C         -1.65105        2.83600       -0.16988
C         -0.70377        1.84011        0.10759
N          0.61144        2.00700       -0.01723
C          1.04350        3.19640       -0.44201
C         -3.09854        2.54107       -0.01435
C         -4.08942        3.52089        0.04346
C         -5.39884        3.06487        0.16874
N         -5.73236        1.78154        0.23448
C         -4.69796        0.92049        0.18181
N         -3.41264        1.24705        0.06777
N         -5.04671       -0.40284        0.26256
C         -4.21213       -1.53521        0.30381
C         -4.67757       -2.68681        0.96537
C         -3.82284       -3.78471        1.02984
C         -2.54397       -3.76050        0.48615
C         -2.10716       -2.61424       -0.17530
C         -2.95582       -1.51805       -0.29786
N         -0.76980       -2.56213       -0.63449
C         -0.23955       -1.64804       -1.51252
C          1.25988       -1.56829       -1.54507
C          2.12806       -2.56350       -1.08974
C          3.49923       -2.33723       -1.06309
C          4.03343       -1.11678       -1.48059
C          3.16401       -0.15704       -2.00044
C          1.79551       -0.37430       -2.02988
C          5.51108       -0.80616       -1.31045
N          5.91636       -0.17713       -0.06417
C          5.91212       -1.00030        1.13944
C          4.61891       -0.89216        1.96549
N          4.24901        0.48662        2.26786
C          5.06851        1.10739        3.29210
C          4.15928        1.25640        1.02973
C          5.44506        1.18177        0.18623
O         -0.92165       -0.89614       -2.18996
C         -6.04540       -2.72857        1.59660
H          0.60036        5.19844       -1.10279
H         -1.85848        4.87120       -0.87085
H         -1.04133        0.86587        0.44734
H          2.12201        3.30313       -0.54251
H         -3.87293        4.58111        0.00785
H         -6.22367        3.77299        0.21989
H         -6.03318       -0.53719        0.42567
H         -4.16324       -4.68303        1.53824
H         -1.89343       -4.62629        0.57613
H         -2.62444       -0.64657       -0.83332
H         -0.11665       -3.09538       -0.08200
H          1.75419       -3.53358       -0.77027
H          4.16490       -3.11574       -0.69727
H          3.56442        0.78745       -2.36178
H          1.11348        0.38185       -2.40028
H          6.08959       -1.73270       -1.41085
H          5.82954       -0.14532       -2.12674
H          6.09625       -2.04324        0.85663
H          6.76225       -0.68915        1.76527
H          4.72971       -1.44305        2.90770
H          3.78699       -1.34319        1.41193
H          6.13697        1.23281        3.04130
H          5.01234        0.50798        4.20764
H          4.66288        2.09981        3.51738
H          3.94209        2.30199        1.28219
H          3.30189        0.87680        0.46218
H          6.24776        1.72434        0.70813
H          5.29938        1.68688       -0.77553
H         -6.84692       -2.62554        0.85239
H         -6.17500       -1.92796        2.33539
H         -6.20584       -3.68081        2.10877
