68
MOLECULE0-opt-14-13-11-12-256.log	Energy: -992567.9115472
C         -8.41884       -3.55733        0.17989
C         -7.07160       -3.22822        0.11804
C         -6.70784       -1.90474       -0.13135
C         -7.73829       -0.97270       -0.30133
N         -9.03408       -1.27475       -0.24857
C         -9.35746       -2.54852       -0.01074
C         -5.29159       -1.47182       -0.21615
C         -4.25732       -2.36041       -0.53961
C         -2.98204       -1.82652       -0.58513
N         -2.70874       -0.54380       -0.34696
C         -3.76566        0.22491       -0.05946
N         -5.04552       -0.18557        0.01744
N         -3.61114        1.55943        0.19399
C         -2.48135        2.39157        0.23987
C         -2.70357        3.75454        0.52894
C         -1.59651        4.59260        0.58539
C         -0.29569        4.14908        0.37022
C         -0.09935        2.80050        0.08302
C         -1.18796        1.92631        0.01851
N          1.16512        2.23537       -0.17452
C          2.40366        2.81100       -0.04942
C          3.54199        1.90973       -0.43757
C          3.43709        0.93403       -1.43186
C          4.52956        0.13381       -1.74492
C          5.74084        0.27335       -1.06592
C          5.84795        1.28035       -0.10343
C          4.76633        2.09415        0.20564
C          6.90547       -0.66621       -1.34350
N          6.96783       -1.91125       -0.59657
C          6.00399       -2.95271       -0.93129
C          4.73469       -2.93179       -0.06218
N          5.02121       -2.91541        1.36935
C          5.46451       -4.19432        1.89518
C          5.91826       -1.80528        1.68079
C          7.20585       -1.81665        0.83926
O          2.59854        3.94588        0.35398
C         -4.09090        4.29405        0.77027
H         -8.73770       -4.57481        0.37961
H         -6.31634       -3.99040        0.28604
H         -7.48769        0.06675       -0.49246
H        -10.42157       -2.76979        0.03393
H         -4.43590       -3.40306       -0.76910
H         -2.12721       -2.45341       -0.83069
H         -4.49695        1.99826        0.39571
H         -1.75466        5.64492        0.80716
H          0.54445        4.82536        0.42991
H         -1.04051        0.87707       -0.20218
H          1.15345        1.24559       -0.37031
H          2.51457        0.81820       -1.99520
H          4.43884       -0.61448       -2.52901
H          6.79359        1.42502        0.41405
H          4.85105        2.88203        0.94694
H          6.90488       -0.92696       -2.40917
H          7.84269       -0.12792       -1.15386
H          5.74194       -2.86440       -1.99188
H          6.50335       -3.92562       -0.81026
H          4.11162       -3.80577       -0.28868
H          4.14567       -2.03592       -0.29110
H          6.41379       -4.57763        1.48086
H          4.69200       -4.94713        1.70317
H          5.58730       -4.10945        2.98031
H          6.16626       -1.84144        2.74845
H          5.36944       -0.87337        1.50134
H          7.82343       -2.67693        1.13786
H          7.79906       -0.91774        1.04187
H         -4.57141        3.82822        1.64119
H         -4.75033        4.14394       -0.09491
H         -4.05367        5.36918        0.96243
