%RWF=/scratch/bdw2292/Gau-MOLECULE0/,100GB
%Nosave
%Chk=MOLECULE0-opt-15-14-13-11-303.chk
%Mem=20GB
%Nproc=6
#P opt=(,maxcycle=400) wB97XD/6-31G* MaxDisk=100GB

MOLECULE0 Rotatable Bond Optimization on g2-node38.bme.utexas.edu

0 1
 C    8.605699   -2.095996    6.646945
 C    8.395099   -1.064189    5.722598
 C    7.535701   -1.266118    4.623651
 C    6.925376   -2.542763    4.541383
 N    7.115958   -3.538488    5.416982
 C    7.943113   -3.311650    6.447297
 C    7.255750   -0.211185    3.583160
 C    7.784202    1.090724    3.581206
 C    7.383464    1.909580    2.519527
 N    6.560727    1.530019    1.545922
 C    6.110000    0.261093    1.628629
 N    6.426492   -0.599098    2.595852
 N    5.261053   -0.131954    0.616576
 C    4.529097   -1.334822    0.396769
 C    5.188284   -2.598113    0.323919
 C    4.380148   -3.727477    0.117765
 C    2.988611   -3.675421   -0.012763
 C    2.358336   -2.428038    0.059912
 C    3.137687   -1.272392    0.247196
 N    0.947986   -2.207335   -0.061596
 C   -0.067790   -3.066493   -0.412892
 C   -1.432470   -2.473080   -0.699772
 C   -1.618382   -1.223894   -1.313709
 C   -2.905892   -0.728327   -1.531972
 C   -4.047947   -1.462374   -1.159795
 C   -3.846329   -2.717185   -0.553902
 C   -2.563090   -3.223808   -0.337884
 C   -5.454467   -0.894821   -1.355618
 N   -6.008762    0.020771   -0.343352
 C   -5.516558    1.414902   -0.288978
 C   -4.366530    1.645468    0.724688
 N   -4.671084    1.185956    2.099857
 C   -5.459722    2.096332    2.938759
 C   -5.127740   -0.224719    2.048006
 C   -6.259894   -0.494903    1.022100
 O    0.086464   -4.275822   -0.468680
 C    6.693813   -2.794457    0.395359
 H    9.264201   -1.963635    7.500471
 H    8.913614   -0.121704    5.880788
 H    6.242250   -2.764220    3.726000
 H    8.075603   -4.140847    7.140339
 H    8.455451    1.474112    4.339497
 H    7.746820    2.934560    2.449272
 H    5.075767    0.628541   -0.021891
 H    4.846351   -4.709741    0.047592
 H    2.405732   -4.575120   -0.167562
 H    2.678038   -0.295364    0.310708
 H    0.663772   -1.246999    0.071363
 H   -0.751174   -0.645292   -1.622183
 H   -3.018074    0.248987   -2.001949
 H   -4.701398   -3.314195   -0.238385
 H   -2.416274   -4.196074    0.125980
 H   -5.485736   -0.371817   -2.322352
 H   -6.160103   -1.733767   -1.443518
 H   -5.288803    1.769812   -1.252582
 H   -6.711379    2.293978    0.233023
 H   -4.108790    3.123150    0.765379
 H   -3.399693    1.129269    0.384257
 H   -6.472893    2.220769    2.540097
 H   -4.976164    3.078527    2.989455
 H   -5.528910    1.703831    3.959872
 H   -5.415550   -0.563330    3.076748
 H   -3.936306   -1.049841    1.618810
 H   -7.518966    0.278446    1.581328
 H   -6.536199   -1.578125    0.987032
 H    7.025907   -2.995626    1.422224
 H    7.249385   -1.917319    0.037851
 H    7.031618   -3.639888   -0.220307

15 14 13 11 F
19 14 13 11 F
14 13 11 12 F
14 13 11 10 F
19 18 20 21 F
17 18 20 21 F
22 21 20 18 F
36 21 20 18 F
20 21 22 23 F
36 21 22 23 F
36 21 22 27 F
20 21 22 27 F
29 28 25 24 F
29 28 25 26 F
25 28 29 35 F
25 28 29 30 F

