%RWF=/scratch/bdw2292/Gau-MOLECULE0/,100GB
%Nosave
%Chk=MOLECULE0-opt-14-13-11-12-144.chk
%Mem=20GB
%Nproc=6
#P opt=(maxcycle=5,Loose) wB97XD/6-31G* MaxDisk=100GB

MOLECULE0 Rotatable Bond Optimization on node37.bme.utexas.edu

0 1
 C    6.023109    6.688866    2.985660
 C    5.456183    5.871175    1.999024
 C    5.655284    4.476139    2.039344
 C    6.441543    3.993952    3.115067
 N    6.990150    4.762097    4.065523
 C    6.780000    6.084297    3.994874
 C    5.077070    3.523562    1.023321
 C    4.274799    3.893510   -0.069977
 C    3.833681    2.846040   -0.885447
 N    4.120485    1.564273   -0.679889
 C    4.901376    1.306610    0.388464
 N    5.379452    2.226441    1.227282
 N    5.205624   -0.017319    0.597678
 C    4.457162   -1.231220    0.414272
 C    5.153794   -2.476429    0.365891
 C    4.380894   -3.635086    0.188328
 C    2.988068   -3.628775    0.057409
 C    2.319595   -2.400612    0.111486
 C    3.061750   -1.219247    0.285059
 N    0.905001   -2.219969   -0.018867
 C   -0.090073   -3.103843   -0.366783
 C   -1.463340   -2.533610   -0.662042
 C   -1.657986   -1.287948   -1.280782
 C   -2.948133   -0.802178   -1.502070
 C   -4.085426   -1.545571   -1.134662
 C   -3.875692   -2.800923   -0.532216
 C   -2.588707   -3.295655   -0.307921
 C   -5.493349   -0.982536   -1.333816
 N   -6.055752   -0.074808   -0.318480
 C   -5.567372    1.320449   -0.251360
 C   -4.427386    1.548702    0.774492
 N   -4.741197    1.079101    2.143996
 C   -5.542561    1.979142    2.982308
 C   -5.189330   -0.333399    2.077668
 C   -6.312637   -0.601035    1.041893
 O    0.088745   -4.310139   -0.414230
 C    6.663259   -2.598110    0.487268
 H    5.882970    7.765668    2.974520
 H    4.868209    6.345502    1.216827
 H    6.630729    2.928503    3.208527
 H    7.239542    6.679480    4.782302
 H    3.991656    4.913726   -0.297336
 H    3.206061    3.050571   -1.752377
 H    6.178513   -0.100181    0.853093
 H    4.876408   -4.604070    0.142512
 H    2.432791   -4.547513   -0.086819
 H    2.560787   -0.261024    0.307618
 H    0.598682   -1.265053    0.102906
 H   -0.795361   -0.701614   -1.587554
 H   -3.065344    0.173835   -1.973016
 H   -4.727616   -3.405807   -0.222620
 H   -2.434851   -4.265956    0.157704
 H   -5.521920   -0.454488   -2.297985
 H   -6.195646   -1.823405   -1.428967
 H   -5.330338    1.682250   -1.212588
 H   -6.769809    2.194120    0.265008
 H   -4.171499    3.029156    0.827344
 H   -3.439586    1.024884    0.431391
 H   -6.552203    2.102917    2.574479
 H   -5.063767    2.962890    3.046447
 H   -5.620851    1.577842    3.999387
 H   -5.483940   -0.682625    3.104354
 H   -3.994984   -1.146290    1.652126
 H   -7.578544    0.160214    1.596710
 H   -6.583557   -1.687782    0.997147
 H    7.014533   -2.261936    1.473080
 H    7.178440   -1.993155   -0.272290
 H    7.021914   -3.628902    0.360903

12 11 13 14 F
10 11 13 14 F
19 18 20 21 F
17 18 20 21 F
36 21 22 23 F
20 21 22 23 F
36 21 22 27 F
20 21 22 27 F
24 25 28 29 F
26 25 28 29 F
25 28 29 35 F
25 28 29 30 F

