68
MOLECULE0-opt-25-28-29-35-026.log	Energy: -992572.0341213
C          0.72224        4.65716       -0.58908
C          2.04550        4.40157       -0.25181
C          2.54993        3.11271       -0.41829
C          1.68036        2.14260       -0.93429
N          0.40732        2.37013       -1.25189
C         -0.05557        3.61112       -1.07404
C          3.93134        2.72596       -0.03628
C          4.98543        3.62619        0.09289
C          6.20650        3.08487        0.49261
N          6.40102        1.79432        0.72814
C          5.32051        1.00717        0.55013
N          4.10601        1.42240        0.19329
N          5.53829       -0.32492        0.77024
C          4.68771       -1.42596        0.55140
C          5.27434       -2.69880        0.40659
C          4.42681       -3.77572        0.16417
C          3.04529       -3.64920        0.04398
C          2.48658       -2.38273        0.19876
C          3.30566       -1.28790        0.47896
N          1.11598       -2.09456        0.07208
C          0.09832       -2.89933       -0.37314
C         -1.20452       -2.18028       -0.58203
C         -1.28790       -0.82267       -0.89876
C         -2.52931       -0.21969       -1.07071
C         -3.70542       -0.95465       -0.94273
C         -3.61709       -2.31828       -0.64540
C         -2.38223       -2.92514       -0.47400
C         -5.05419       -0.29896       -1.14892
N         -6.03664       -0.74699       -0.17095
C         -7.41081       -0.37617       -0.50714
C         -7.71705        1.10464       -0.23215
N         -7.40802        1.50979        1.13795
C         -8.39094        1.06594        2.11054
C         -6.03692        1.13203        1.47901
C         -5.72929       -0.34721        1.20528
O          0.21576       -4.09787       -0.57195
C          6.76697       -2.89099        0.49567
H          0.29332        5.64550       -0.46347
H          2.66652        5.19134        0.16101
H          2.05060        1.13399       -1.09745
H         -1.09999        3.77364       -1.32973
H          4.88299        4.68434       -0.11284
H          7.07503        3.72706        0.62472
H          6.50234       -0.52523        0.99054
H          4.86741       -4.76261        0.04717
H          2.41640       -4.50156       -0.17012
H          2.86855       -0.30880        0.60783
H          0.86537       -1.14141        0.28734
H         -0.40288       -0.20924       -1.04792
H         -2.57005        0.83962       -1.31191
H         -4.53443       -2.88815       -0.53349
H         -2.30680       -3.98488       -0.25284
H         -4.91276        0.79630       -1.17837
H         -5.43681       -0.58134       -2.13868
H         -7.59710       -0.61739       -1.56009
H         -8.08004       -1.00884        0.09103
H         -8.77210        1.32115       -0.43615
H         -7.12299        1.73383       -0.90924
H         -8.48462       -0.02829        2.22612
H         -9.37490        1.45554        1.82799
H         -8.13694        1.48261        3.09111
H         -5.85599        1.36914        2.53367
H         -5.35949        1.76446        0.88898
H         -6.32602       -0.98142        1.87368
H         -4.67697       -0.56596        1.41236
H          7.16301       -2.62351        1.48494
H          7.30307       -2.29031       -0.25025
H          7.02900       -3.93744        0.32041
