68
MOLECULE0-opt-14-13-11-12-172.log	Energy: -992567.9200374
C         -8.54908       -3.37683       -0.59796
C         -7.21118       -3.04128       -0.75625
C         -6.72121       -1.89588       -0.12856
C         -7.62225       -1.13997        0.63071
N         -8.90607       -1.45207        0.79511
C         -9.35132       -2.55394        0.18595
C         -5.30566       -1.46709       -0.24024
C         -4.27299       -2.36485       -0.54225
C         -2.99866       -1.83119       -0.61535
N         -2.72307       -0.54340       -0.40891
C         -3.77504        0.22795       -0.11035
N         -5.05511       -0.17900       -0.02205
N         -3.61685        1.56402        0.13216
C         -2.48540        2.39398        0.17297
C         -2.70621        3.76063        0.44514
C         -1.59754        4.59663        0.49926
C         -0.29659        4.14738        0.29775
C         -0.10155        2.79513        0.02716
C         -1.19190        1.92285       -0.03504
N          1.16372        2.22489       -0.21493
C          2.40208        2.80027       -0.08633
C          3.54285        1.89471       -0.45665
C          3.44453        0.90682       -1.43940
C          4.53989        0.10470       -1.73733
C          5.74781        0.25518       -1.05466
C          5.84829        1.27380       -0.10381
C          4.76369        2.08896        0.19046
C          6.91582       -0.68488       -1.31561
N          6.98026       -1.91791       -0.54930
C          6.01734       -2.96526       -0.86781
C          4.74918       -2.93378        0.00252
N          5.03739       -2.89617        1.43324
C          5.48328       -4.16659        1.97712
C          5.93270       -1.78010        1.72745
C          7.21933       -1.80105        0.88473
O          2.59517        3.93918        0.30649
C         -4.09374        4.30602        0.67175
H         -8.96664       -4.25573       -1.07752
H         -6.56651       -3.65313       -1.38051
H         -7.27026       -0.24065        1.12780
H        -10.40418       -2.78573        0.33075
H         -4.44545       -3.42364       -0.68691
H         -2.14511       -2.46509       -0.84691
H         -4.50189        2.00669        0.32874
H         -1.75447        5.65173        0.70828
H          0.54483        4.82221        0.35541
H         -1.04605        0.87106       -0.24474
H          1.15192        1.23299       -0.39969
H          2.52513        0.78254       -2.00600
H          4.45438       -0.65311       -2.51280
H          6.79122        1.42653        0.41630
H          4.84331        2.88571        0.92277
H          6.91792       -0.96214       -2.37711
H          7.85112       -0.14105       -1.13257
H          5.75347       -2.89199       -1.92913
H          6.51812       -3.93592       -0.73422
H          4.12741       -3.81204       -0.21049
H          4.15831       -2.04231       -0.23877
H          6.43243       -4.55471        1.56698
H          4.71141       -4.92317        1.79762
H          5.60768       -4.06557        3.06067
H          6.18208       -1.80005        2.79523
H          5.38170       -0.85198        1.53520
H          7.83934       -2.65505        1.19560
H          7.81044       -0.89770        1.07313
H         -4.57998        3.85230        1.54593
H         -4.74855        4.14592       -0.19510
H         -4.05530        5.38337        0.85073
