%RWF=/scratch/bdw2292/Gau-MOLECULE0/,100GB
%Nosave
%Chk=MOLECULE0-opt-23-22-21-20-216.chk
%Mem=20GB
%Nproc=6
#P opt=(,maxcycle=400) wB97XD/6-31G* MaxDisk=100GB

MOLECULE0 Rotatable Bond Optimization on g2-node38.bme.utexas.edu

0 1
 C   -5.653801   -8.953061   -0.429214
 C   -4.534903   -9.795911   -0.383388
 C   -3.249229   -9.249807   -0.198133
 C   -3.196904   -7.842485   -0.040298
 N   -4.253262   -7.020409   -0.072708
 C   -5.458023   -7.576151   -0.272219
 C   -1.989706  -10.079245   -0.146413
 C   -1.930882  -11.481426   -0.189684
 C   -0.650311  -12.037355   -0.092913
 N    0.470950  -11.330452    0.017975
 C    0.321962   -9.989014    0.027988
 N   -0.854288   -9.360873   -0.049471
 N    1.496471   -9.258919    0.124581
 C    1.781766   -7.849154    0.237688
 C    3.070153   -7.431810    0.690317
 C    3.293552   -6.049518    0.803856
 C    2.336099   -5.076465    0.495744
 C    1.086978   -5.499013    0.028770
 C    0.830827   -6.874627   -0.091777
 N   -0.003997   -4.643041   -0.332985
 C   -0.174672   -3.287010   -0.180188
 C   -1.554911   -2.713228   -0.434601
 C   -1.640637   -1.442224   -1.026618
 C   -2.885942   -0.874572   -1.305208
 C   -4.084655   -1.548277   -1.003965
 C   -3.983577   -2.819697   -0.407650
 C   -2.743236   -3.395676   -0.124351
 C   -5.444761   -0.898703   -1.263068
 N   -6.004174    0.032293   -0.267584
 C   -5.437946    1.395315   -0.160335
 C   -4.353661    1.559472    0.935583
 N   -4.774462    1.099754    2.279425
 C   -5.578465    2.037738    3.072183
 C   -5.287996   -0.287648    2.173442
 C   -6.361675   -0.488035    1.071887
 O    0.744283   -2.544908    0.128972
 C    4.177844   -8.398557    1.072145
 H   -6.652201   -9.352162   -0.581836
 H   -4.689880  -10.864438   -0.510961
 H   -2.246329   -7.355648    0.148146
 H   -6.300792   -6.887275   -0.299190
 H   -2.799225  -12.124648   -0.264462
 H   -0.520151  -13.119340   -0.101609
 H    2.278216   -9.890657    0.213382
 H    4.259809   -5.694872    1.160309
 H    2.548341   -4.019933    0.604566
 H   -0.129089   -7.209551   -0.451066
 H   -0.810302   -5.128045   -0.701635
 H   -0.720088   -0.912038   -1.258326
 H   -2.917891    0.115942   -1.758006
 H   -4.884565   -3.374381   -0.145738
 H   -2.696008   -4.379382    0.337595
 H   -5.392789   -0.360966   -2.220929
 H   -6.190052   -1.694986   -1.402904
 H   -5.117310    1.745024   -1.105104
 H   -6.619499    2.339275    0.284051
 H   -4.015979    3.001554    1.013776
 H   -3.330986    0.945438    0.630803
 H   -6.554415    2.212891    2.605534
 H   -5.055379    2.995950    3.169108
 H   -5.736691    1.639350    4.080937
 H   -5.634540   -0.621908    3.144823
 H   -4.098075   -1.162359    1.791065
 H   -7.619081    0.322379    1.560811
 H   -6.685119   -1.606126    0.999984
 H    4.505442   -8.992679    0.207408
 H    3.848404   -9.100852    1.850829
 H    5.071718   -7.894159    1.464254

20 21 22 23 F
36 21 22 23 F
36 21 22 27 F
20 21 22 27 F
14 13 11 12 F
14 13 11 10 F
15 14 13 11 F
19 14 13 11 F
19 18 20 21 F
17 18 20 21 F
22 21 20 18 F
36 21 20 18 F
29 28 25 24 F
29 28 25 26 F
25 28 29 35 F
25 28 29 30 F

