%RWF=/scratch/bdw2292/Gau-MOLECULE0/,100GB
%Nosave
%Chk=MOLECULE0-opt-23-22-21-36-335.chk
%Mem=20GB
%Nproc=6
#P opt=(maxcycle=5,Loose) wB97XD/6-31G* MaxDisk=100GB

MOLECULE0 Rotatable Bond Optimization on node37.bme.utexas.edu

0 1
 C   -5.447943   -5.078642    5.661931
 C   -4.337781   -5.794114    6.129601
 C   -3.095600   -5.675354    5.474846
 C   -3.063517   -4.788688    4.370651
 N   -4.114399   -4.099551    3.907773
 C   -5.284227   -4.250043    4.546675
 C   -1.855287   -6.426260    5.891637
 C   -1.755883   -7.242679    7.031200
 C   -0.512059   -7.846964    7.244818
 N    0.538866   -7.700839    6.442027
 C    0.350864   -6.913353    5.363605
 N   -0.790934   -6.284384    5.077989
 N    1.455071   -6.783132    4.541518
 C    1.733000   -6.014542    3.355967
 C    3.090172   -5.817395    2.956391
 C    3.317138   -5.057158    1.797601
 C    2.298142   -4.490280    1.024249
 C    0.970957   -4.702428    1.413728
 C    0.714611   -5.461056    2.568295
 N   -0.185244   -4.183900    0.740978
 C   -0.308799   -3.276625   -0.287501
 C   -1.687510   -2.725314   -0.609103
 C   -1.741374   -1.477450   -1.254900
 C   -2.968920   -0.879704   -1.549725
 C   -4.187730   -1.509722   -1.235487
 C   -4.121376   -2.773499   -0.619345
 C   -2.898003   -3.380963   -0.325680
 C   -5.531079   -0.830290   -1.506896
 N   -6.080218    0.130949   -0.537332
 C   -5.495379    1.487634   -0.447849
 C   -4.409866    1.651549    0.647264
 N   -4.845604    1.212331    1.994806
 C   -5.650331    2.166452    2.767376
 C   -5.373764   -0.171180    1.898184
 C   -6.462236   -0.354859    0.808408
 O    0.652461   -2.919385   -0.951480
 C    4.276866   -6.376910    3.723921
 H   -6.415735   -5.160276    6.147927
 H   -4.468084   -6.445607    6.990125
 H   -2.135155   -4.610420    3.837511
 H   -6.115341   -3.673669    4.143201
 H   -2.559556   -7.414389    7.736622
 H   -0.325357   -8.490425    8.104150
 H    2.228440   -7.288246    4.946943
 H    4.341526   -4.884219    1.469751
 H    2.519090   -3.898663    0.144914
 H   -0.305441   -5.639119    2.868004
 H   -1.058542   -4.492386    1.141988
 H   -0.809459   -0.976567   -1.506419
 H   -2.974383    0.099984   -2.026312
 H   -5.040183   -3.293097   -0.347573
 H   -2.886382   -4.364548    0.135579
 H   -5.458127   -0.314976   -2.474789
 H   -6.293193   -1.612305   -1.634834
 H   -5.081947    1.834841   -1.512586
 H   -6.608732    2.415125   -0.110162
 H   -4.032583    2.902971    0.711455
 H   -3.355741    0.950421    0.338069
 H   -6.620616    2.339543    2.288222
 H   -5.123108    3.123620    2.853240
 H   -5.819644    1.784752    3.780821
 H   -5.776269   -0.513391    2.964071
 H   -4.226114   -1.040883    1.573358
 H   -7.646718    0.419490    1.226840
 H   -6.811889   -1.511508    0.751440
 H    4.272905   -7.475527    3.769030
 H    4.286295   -6.011861    4.754871
 H    5.236159   -6.091914    3.284202

36 21 22 23 F
20 21 22 23 F
36 21 22 27 F
20 21 22 27 F
12 11 13 14 F
10 11 13 14 F
19 18 20 21 F
17 18 20 21 F
24 25 28 29 F
26 25 28 29 F
25 28 29 35 F
25 28 29 30 F

