%RWF=/scratch/bdw2292/Gau-MOLECULE0/,100GB
%Nosave
%Chk=MOLECULE0-opt-29-28-25-24-277.chk
%Mem=20GB
%Nproc=6
#P opt=(maxcycle=5,Loose) wB97XD/6-31G* MaxDisk=100GB

MOLECULE0 Rotatable Bond Optimization on node37.bme.utexas.edu

0 1
 C   -0.213100    4.459463   -1.243958
 C    1.123592    4.366388   -0.831562
 C    1.723022    3.101972   -0.666773
 C    0.900141    1.989474   -0.973101
 N   -0.374905    2.055715   -1.376904
 C   -0.916719    3.276776   -1.498740
 C    3.148536    2.904829   -0.210543
 C    4.089803    3.922684    0.009679
 C    5.363211    3.495168    0.403556
 N    5.707216    2.223981    0.592641
 C    4.732162    1.314184    0.385705
 N    3.491991    1.618711   -0.007328
 N    5.085290   -0.010146    0.611254
 C    4.383511   -1.260858    0.440810
 C    5.113437   -2.487534    0.413959
 C    4.376289   -3.669869    0.224919
 C    2.985745   -3.708020    0.063270
 C    2.283371   -2.500194    0.114617
 C    2.991648   -1.303279    0.302322
 N    0.871765   -2.335826   -0.038070
 C   -0.118612   -3.215644   -0.406151
 C   -1.474055   -2.613348   -0.724718
 C   -1.617561   -1.364630   -1.353351
 C   -2.884656   -0.826075   -1.576766
 C   -4.049966   -1.509732   -1.185458
 C   -3.894403   -2.779003   -0.595133
 C   -2.629644   -3.333791   -0.382428
 C   -5.424945   -0.863173   -1.353194
 N   -5.890732    0.067602   -0.307823
 C   -5.299993    1.424225   -0.242749
 C   -4.105353    1.565574    0.736131
 N   -4.394185    1.096742    2.111909
 C   -5.095415    2.038074    2.992483
 C   -4.941933   -0.280345    2.045939
 C   -6.125668   -0.456146    1.057875
 O    0.056238   -4.422663   -0.460544
 C    6.623452   -2.562966    0.556135
 H   -0.698291    5.423284   -1.364898
 H    1.664942    5.286371   -0.625537
 H    1.306975    0.986002   -0.913945
 H   -1.955662    3.305032   -1.823422
 H    3.888534    4.977157   -0.133438
 H    6.156777    4.221589    0.576384
 H    6.060634   -0.062737    0.864686
 H    4.902570   -4.622889    0.185562
 H    2.455080   -4.639250   -0.094778
 H    2.453966   -0.370419    0.345172
 H    0.556182   -1.383002    0.079479
 H   -0.735814   -0.799033   -1.644680
 H   -2.953444    0.160150   -2.035668
 H   -4.771119   -3.341900   -0.275937
 H   -2.515595   -4.307364    0.087539
 H   -5.444567   -0.318558   -2.308282
 H   -6.180524   -1.658728   -1.427541
 H   -5.077456    1.786581   -1.215261
 H   -6.421528    2.372672    0.336773
 H   -3.755604    3.026721    0.796173
 H   -3.175551    0.998241    0.354925
 H   -6.111833    2.232149    2.632086
 H   -4.549735    2.987247    3.042480
 H   -5.153637    1.631605    4.008817
 H   -5.238240   -0.632658    3.121296
 H   -3.841363   -1.154343    1.580477
 H   -7.305447    0.386409    1.673070
 H   -6.470938   -1.495362    1.016042
 H    6.950048   -2.214734    1.545970
 H    7.130180   -1.942245   -0.196036
 H    7.014486   -3.582709    0.436381

24 25 28 29 F
26 25 28 29 F
12 11 13 14 F
10 11 13 14 F
19 18 20 21 F
17 18 20 21 F
36 21 22 23 F
20 21 22 23 F
36 21 22 27 F
20 21 22 27 F
25 28 29 35 F
25 28 29 30 F

