%RWF=/scratch/bdw2292/Gau-MOLECULE0/,100GB
%Nosave
%Chk=MOLECULE0-opt-25-28-29-35-132.chk
%Mem=20GB
%Nproc=6
#P opt=(,maxcycle=400) wB97XD/6-31G* MaxDisk=100GB

MOLECULE0 Rotatable Bond Optimization on node37.bme.utexas.edu

0 1
 C   -1.187601   -9.932667   -0.585094
 C    0.187495   -9.761051   -0.788777
 C    0.779852   -8.489922   -0.627883
 C   -0.100275   -7.446095   -0.252042
 N   -1.418405   -7.596656   -0.049044
 C   -1.943818   -8.817028   -0.216509
 C    2.258978   -8.242558   -0.815512
 C    3.178287   -9.258328   -1.137115
 C    4.515412   -8.869655   -1.232749
 N    4.946715   -7.629573   -1.042488
 C    3.999258   -6.712193   -0.747461
 N    2.692783   -6.973346   -0.638317
 N    4.521481   -5.438614   -0.568985
 C    4.005737   -4.152065   -0.187303
 C    4.937486   -3.157667    0.242714
 C    4.411807   -1.916530    0.629013
 C    3.049731   -1.603643    0.596264
 C    2.145735   -2.571650    0.136829
 C    2.641723   -3.837888   -0.225347
 N    0.735904   -2.322799    0.050599
 C   -0.345869   -3.126768   -0.228756
 C   -1.683879   -2.466610   -0.491381
 C   -1.824572   -1.233193   -1.147215
 C   -3.090903   -0.676937   -1.341443
 C   -4.257731   -1.340959   -0.917795
 C   -4.101595   -2.580257   -0.267985
 C   -2.839290   -3.141369   -0.062597
 C   -5.639809   -0.713630   -1.106375
 N   -6.133423    0.262511   -0.119948
 C   -5.575115    1.632753   -0.121457
 C   -4.407592    1.849899    0.875332
 N   -4.715645    1.451413    2.268643
 C   -5.462082    2.418702    3.082399
 C   -5.227196    0.059148    2.268167
 C   -6.383543   -0.194755    1.266210
 O   -0.275005   -4.342653   -0.241805
 C    6.437993   -3.383755    0.329765
 H   -1.660381  -10.903162   -0.704665
 H    0.766686  -10.636367   -1.071615
 H    0.286683   -6.446062   -0.102552
 H   -3.015749   -8.900305   -0.043920
 H    2.911914  -10.296686   -1.289646
 H    5.286928   -9.601843   -1.469232
 H    5.524328   -5.493771   -0.663906
 H    5.089232   -1.137895    0.978728
 H    2.704688   -0.623690    0.905266
 H    1.960015   -4.607639   -0.555640
 H    0.510676   -1.342416    0.147452
 H   -0.939308   -0.713569   -1.505339
 H   -3.167383    0.286120   -1.846375
 H   -4.976452   -3.123974    0.087313
 H   -2.727427   -4.107449    0.425046
 H   -5.664164   -0.224722   -2.091109
 H   -6.385731   -1.520528   -1.149462
 H   -5.334039    1.942734   -1.108868
 H   -6.727124    2.590461    0.376050
 H   -4.081474    3.303038    0.860998
 H   -3.445631    1.258829    0.533915
 H   -6.473769    2.567596    2.688435
 H   -4.942059    3.383179    3.095891
 H   -5.536386    2.063409    4.116673
 H   -5.506971   -0.234180    3.299531
 H   -4.076032   -0.826082    1.844640
 H   -7.603016    0.639459    1.813241
 H   -6.707735   -1.312883    1.272986
 H    6.872852   -3.568137   -0.662803
 H    6.678728   -4.250149    0.962081
 H    6.978972   -2.527526    0.755534

25 28 29 35 F
25 28 29 30 F
12 11 13 14 F
10 11 13 14 F
19 18 20 21 F
17 18 20 21 F
36 21 22 23 F
20 21 22 23 F
36 21 22 27 F
20 21 22 27 F
24 25 28 29 F
26 25 28 29 F

