68
MOLECULE0-opt-23-22-21-20-276.log	Energy: -992569.4408317
C          1.06538        4.84774        0.14836
C          2.36937        4.38507        0.27598
C          2.68424        3.10995       -0.19107
C          1.65249        2.36933       -0.78081
N          0.39631        2.79298       -0.90077
C          0.11699        4.01398       -0.43418
C          4.03322        2.50964       -0.04053
C          5.20288        3.25935        0.04212
C          6.38282        2.53688        0.21391
N          6.43064        1.21493        0.29598
C          5.24305        0.58367        0.18760
N          4.05935        1.17512        0.02117
N          5.31988       -0.77885        0.27571
C          4.31673       -1.76440        0.24466
C          4.68264       -3.09152        0.55073
C          3.68353       -4.05995        0.52538
C          2.35497       -3.78256        0.21087
C          2.02009       -2.46730       -0.09790
C          2.99690       -1.47210       -0.07809
N          0.73251       -2.02893       -0.45539
C         -0.46645       -2.68198       -0.36572
C         -1.66055       -1.84829       -0.74931
C         -1.65309       -0.45211       -0.83112
C         -2.79893        0.23464       -1.21177
C         -3.98379       -0.44339       -1.49950
C         -3.98349       -1.83801       -1.41703
C         -2.84227       -2.53249       -1.04033
C         -5.24775        0.32194       -1.86303
N         -6.14068        0.72240       -0.78854
C         -5.65563        1.73605        0.14118
C         -5.00099        1.15692        1.40661
N         -5.84213        0.17582        2.08659
C         -6.95591        0.75841        2.81312
C         -6.23113       -0.87444        1.14943
C         -6.90302       -0.32736       -0.12134
O         -0.58005       -3.84889       -0.02530
C          6.10363       -3.45204        0.90281
H          0.78290        5.83042        0.51053
H          3.12302        4.99836        0.76158
H          1.87057        1.38404       -1.18318
H         -0.91654        4.33771       -0.53209
H          5.21323        4.33890       -0.04358
H          7.33845        3.05187        0.28877
H          6.26545       -1.09552        0.42986
H          3.95345       -5.08569        0.76375
H          1.60079       -4.55655        0.20677
H          2.72632       -0.44825       -0.28380
H          0.70239       -1.08522       -0.80718
H         -0.77621        0.14127       -0.58390
H         -2.76236        1.31936       -1.27872
H         -4.89364       -2.38666       -1.64955
H         -2.84174       -3.61496       -0.96661
H         -4.96079        1.23401       -2.40163
H         -5.83755       -0.28323       -2.56264
H         -4.95204        2.39068       -0.38587
H         -6.51093        2.36343        0.43445
H         -4.76198        1.96431        2.10962
H         -4.06023        0.66025        1.14218
H         -7.70039        1.29238        2.19670
H         -6.56849        1.46821        3.55242
H         -7.48218       -0.03515        3.35492
H         -6.90583       -1.57194        1.66030
H         -5.32485       -1.42911        0.87983
H         -7.88750        0.08727        0.14251
H         -7.08550       -1.13863       -0.83535
H          6.45456       -2.91700        1.79500
H          6.80307       -3.23051        0.08519
H          6.18815       -4.52118        1.11287
