68
MOLECULE0-opt-22-21-20-18-304.log	Energy: -992565.5483654
C          3.98740        4.89836        0.92751
C          4.70179        3.84124        0.38071
C          4.02977        2.66029        0.06410
C          2.65438        2.60991        0.32387
N          1.95651        3.61740        0.84367
C          2.62141        4.73706        1.13801
C          4.71491        1.48672       -0.52760
C          5.90904        1.59022       -1.23906
C          6.43691        0.40321       -1.73696
N          5.85748       -0.77881       -1.57778
C          4.69787       -0.76454       -0.89124
N          4.11159        0.30467       -0.35422
N          4.11035       -1.99573       -0.77427
C          2.89851       -2.38712       -0.18407
C          2.33377       -3.60462       -0.61509
C          1.14562       -4.02205       -0.02280
C          0.51259       -3.28609        0.97067
C          1.07375       -2.07750        1.37388
C          2.26460       -1.63166        0.80390
N          0.48873       -1.28407        2.39181
C         -0.84252       -1.06624        2.67340
C         -1.84114       -1.20461        1.56473
C         -1.55055       -0.89469        0.23417
C         -2.54677       -0.97042       -0.73054
C         -3.84863       -1.34931       -0.39636
C         -4.12477       -1.66954        0.93460
C         -3.13967       -1.58120        1.90920
C         -4.94827       -1.37532       -1.44843
N         -5.71168       -0.15971       -1.67402
C         -5.02827        0.95698       -2.31681
C         -4.42161        1.96638       -1.32739
N         -5.38184        2.43700       -0.33313
C         -6.35015        3.38576       -0.85158
C         -5.97977        1.29600        0.35493
C         -6.60866        0.27655       -0.60988
O         -1.18392       -0.71475        3.79081
C          2.99159       -4.43572       -1.68709
H          4.47874        5.82831        1.19310
H          5.77306        3.93035        0.22540
H          2.10123        1.70452        0.08856
H          2.03082        5.54363        1.56673
H          6.39810        2.53866       -1.42135
H          7.36991        0.40466       -2.29707
H          4.62613       -2.70533       -1.27268
H          0.70364       -4.96105       -0.34514
H         -0.40550       -3.64379        1.42297
H          2.68708       -0.68556        1.11257
H          1.08862       -1.01980        3.16281
H         -0.54904       -0.58753       -0.04920
H         -2.31105       -0.72293       -1.76309
H         -5.13066       -1.97617        1.21300
H         -3.36185       -1.79541        2.94961
H         -4.50677       -1.66246       -2.41107
H         -5.66610       -2.16226       -1.18473
H         -4.25313        0.56283       -2.98406
H         -5.75842        1.47673       -2.95522
H         -4.02262        2.83181       -1.87029
H         -3.58744        1.50188       -0.78894
H         -7.02926        2.99792       -1.63176
H         -5.81815        4.24525       -1.27395
H         -6.97056        3.74960       -0.02514
H         -6.73609        1.66333        1.05916
H         -5.18990        0.81261        0.94135
H         -7.49560        0.72734       -1.07985
H         -6.95853       -0.60401       -0.05889
H          3.96597       -4.82965       -1.36664
H          3.15225       -3.86152       -2.60778
H          2.36944       -5.29736       -1.94202
