%RWF=/scratch/bdw2292/Gau-MOLECULE0/,100GB
%Nosave
%Chk=MOLECULE0-opt-25-28-29-35-326.chk
%Mem=20GB
%Nproc=6
#P opt=(,maxcycle=400) wB97XD/6-31G* MaxDisk=100GB

MOLECULE0 Rotatable Bond Optimization on g2-node38.bme.utexas.edu

0 1
 C   -0.137613    4.515727   -1.253250
 C    1.188994    4.402954   -0.814854
 C    1.768804    3.129914   -0.645012
 C    0.936856    2.029496   -0.970359
 N   -0.329277    2.114178   -1.398570
 C   -0.851833    3.343482   -1.526275
 C    3.185846    2.914302   -0.171165
 C    4.133112    3.923385    0.064422
 C    5.400367    3.483981    0.464119
 N    5.734611    2.208785    0.642570
 C    4.754519    1.308019    0.420058
 N    3.518074    1.623551    0.023843
 N    5.100619   -0.019829    0.632414
 C    4.396055   -1.265645    0.446827
 C    5.125307   -2.492468    0.406882
 C    4.386714   -3.672081    0.207505
 C    2.995619   -3.707363    0.050601
 C    2.294371   -2.499375    0.113964
 C    3.004033   -1.304070    0.307784
 N    0.882071   -2.334578   -0.030859
 C   -0.109078   -3.212639   -0.400938
 C   -1.468107   -2.611887   -0.706819
 C   -1.618246   -1.357466   -1.322183
 C   -2.888524   -0.825428   -1.543116
 C   -4.051724   -1.524691   -1.172097
 C   -3.888525   -2.793078   -0.581843
 C   -2.620207   -3.339142   -0.366490
 C   -5.430419   -0.886829   -1.353410
 N   -5.937105    0.040287   -0.319595
 C   -5.931674    1.495453   -0.597943
 C   -4.649841    2.223636   -0.116531
 N   -4.328356    2.007510    1.314933
 C   -5.038817    2.848499    2.284705
 C   -4.323305    0.549842    1.589356
 C   -5.590289   -0.201188    1.101509
 O    0.067675   -4.418949   -0.464455
 C    6.636267   -2.569630    0.541122
 H   -0.607786    5.486572   -1.378790
 H    1.738056    5.315427   -0.595953
 H    1.329310    1.020379   -0.906084
 H   -1.883505    3.389091   -1.871127
 H    3.941876    4.980344   -0.074810
 H    6.196882    4.204350    0.648682
 H    6.074911   -0.078894    0.888389
 H    4.911258   -4.625602    0.158021
 H    2.463565   -4.636969   -0.112560
 H    2.468413   -0.369992    0.357868
 H    0.566233   -1.383189    0.096372
 H   -0.739618   -0.784065   -1.608413
 H   -2.960363    0.160300   -2.000910
 H   -4.762918   -3.364419   -0.270554
 H   -2.501127   -4.314815    0.097832
 H   -5.434315   -0.345564   -2.310577
 H   -6.171332   -1.694639   -1.438168
 H   -6.154432    1.685023   -1.607738
 H   -7.105591    2.122935    0.232493
 H   -4.866982    3.684162   -0.334467
 H   -3.723713    1.897934   -0.748810
 H   -6.112891    2.631306    2.283497
 H   -4.892195    3.907845    2.045162
 H   -4.645695    2.676988    3.293388
 H   -4.203492    0.342772    3.019407
 H   -3.255980    0.040332    1.014276
 H   -6.780911    0.393984    1.969269
 H   -5.560569   -1.214907    1.306566
 H    6.969696   -2.219029    1.527919
 H    7.138676   -1.951731   -0.216422
 H    7.026065   -3.589792    0.420994

25 28 29 35 F
25 28 29 30 F
14 13 11 12 F
14 13 11 10 F
15 14 13 11 F
19 14 13 11 F
19 18 20 21 F
17 18 20 21 F
22 21 20 18 F
36 21 20 18 F
20 21 22 23 F
36 21 22 23 F
36 21 22 27 F
20 21 22 27 F
29 28 25 24 F
29 28 25 26 F

