68
MOLECULE0-opt-29-28-25-24-085.log	Energy: -992570.1264611
C         -1.72851        4.86378        0.78178
C         -2.92428        4.15735        0.77209
C         -2.96018        2.89227        0.18649
C         -1.77322        2.39832       -0.36964
N         -0.62034        3.06946       -0.36762
C         -0.60867        4.27671        0.20314
C         -4.19671        2.07248        0.15445
C         -5.46960        2.64267        0.13755
C         -6.54157        1.75677        0.12568
N         -6.40148        0.43762        0.12200
C         -5.12936       -0.00748        0.11899
N         -4.02923        0.74642        0.13808
N         -5.02020       -1.37412        0.11814
C         -3.87688       -2.19031        0.16554
C         -4.00044       -3.46820        0.74090
C         -2.86110       -4.26779        0.78698
C         -1.63461       -3.83352        0.30263
C         -1.53420       -2.56544       -0.27029
C         -2.66279       -1.75445       -0.36131
N         -0.26129       -2.12827       -0.69764
C          0.04642       -0.99137       -1.40049
C          1.51174       -0.69445       -1.50784
C          2.48291       -1.68422       -1.67201
C          3.82572       -1.33584       -1.76263
C          4.22698       -0.00209       -1.67127
C          3.24227        0.97987       -1.53822
C          1.89612        0.64782       -1.46118
C          5.70134        0.37434       -1.68458
N          6.41089        0.39839       -0.41615
C          6.72135       -0.88086        0.21046
C          5.67225       -1.34702        1.23400
N          5.36022       -0.33088        2.23500
C          6.39526       -0.15714        3.23854
C          4.96467        0.90901        1.57147
C          6.00570        1.40839        0.55512
O         -0.78760       -0.24092       -1.88336
C         -5.31266       -3.95282        1.30138
H         -1.66010        5.84524        1.23893
H         -3.81113        4.57678        1.23896
H         -1.75466        1.42326       -0.84642
H          0.34609        4.79825        0.19884
H         -5.62609        3.71381        0.10693
H         -7.56504        2.12699        0.11467
H         -5.91887       -1.82692        0.19149
H         -2.93363       -5.25716        1.23098
H         -0.76223       -4.47839        0.37093
H         -2.59049       -0.78527       -0.82029
H          0.51886       -2.62195       -0.28998
H          2.19491       -2.72840       -1.77094
H          4.57406       -2.11227       -1.90524
H          3.53539        2.02613       -1.48736
H          1.13715        1.41867       -1.34560
H          6.24056       -0.31870       -2.34211
H          5.80263        1.37156       -2.13148
H          6.85146       -1.63708       -0.57240
H          7.69351       -0.78089        0.71616
H          6.02358       -2.25200        1.74484
H          4.73887       -1.59869        0.71700
H          7.36837        0.20425        2.86169
H          6.56907       -1.11498        3.74105
H          6.04554        0.55790        3.99117
H          4.78806        1.67647        2.33486
H          4.01096        0.72526        1.06322
H          6.90581        1.74001        1.09408
H          5.62110        2.28274        0.01829
H         -6.07832       -4.07148        0.52232
H         -5.71094       -3.25937        2.05219
H         -5.19150       -4.92754        1.78114
