68
MOLECULE0-opt-25-28-29-35-048.log	Energy: -992567.8048330
C          0.19616        4.25485       -0.75231
C         -1.17334        4.06907       -0.61303
C         -1.65096        2.83607       -0.16996
C         -0.70361        1.84029        0.10768
N          0.61158        2.00723       -0.01728
C          1.04355        3.19655       -0.44237
C         -3.09842        2.54113       -0.01428
C         -4.08930        3.52095        0.04364
C         -5.39871        3.06493        0.16900
N         -5.73222        1.78160        0.23474
C         -4.69782        0.92055        0.18198
N         -3.41251        1.24710        0.06782
N         -5.04657       -0.40279        0.26277
C         -4.21204       -1.53520        0.30386
C         -4.67755       -2.68688        0.96524
C         -3.82289       -3.78485        1.02954
C         -2.54403       -3.76065        0.48585
C         -2.10714       -2.61430       -0.17541
C         -2.95571       -1.51802       -0.29778
N         -0.76976       -2.56217       -0.63457
C         -0.23951       -1.64807       -1.51258
C          1.25993       -1.56833       -1.54513
C          2.12810       -2.56356       -1.08980
C          3.49927       -2.33728       -1.06312
C          4.03347       -1.11679       -1.48054
C          3.16406       -0.15705       -2.00039
C          1.79556       -0.37432       -2.02988
C          5.51110       -0.80614       -1.31031
N          5.91626       -0.17712       -0.06398
C          5.91196       -1.00030        1.13962
C          4.61868       -0.89223        1.96558
N          4.24870        0.48654        2.26794
C          5.06811        1.10734        3.29223
C          4.15904        1.25634        1.02980
C          5.44490        1.18176        0.18641
O         -0.92160       -0.89612       -2.18998
C         -6.04540       -2.72868        1.59644
H          0.60027        5.19842       -1.10356
H         -1.85854        4.87110       -0.87138
H         -1.04108        0.86610        0.44768
H          2.12205        3.30331       -0.54296
H         -3.87280        4.58117        0.00808
H         -6.22354        3.77304        0.22020
H         -6.03304       -0.53711        0.42592
H         -4.16336       -4.68323        1.53779
H         -1.89355       -4.62649        0.57569
H         -2.62428       -0.64647       -0.83309
H         -0.11662       -3.09547       -0.08212
H          1.75423       -3.53365       -0.77038
H          4.16494       -3.11580       -0.69730
H          3.56447        0.78747       -2.36167
H          1.11353        0.38185       -2.40026
H          6.08965       -1.73266       -1.41067
H          5.82960       -0.14528       -2.12658
H          6.09616       -2.04323        0.85683
H          6.76202       -0.68912        1.76552
H          4.72943       -1.44313        2.90780
H          3.78681       -1.34329        1.41195
H          6.13658        1.23283        3.04150
H          5.01192        0.50793        4.20777
H          4.66241        2.09974        3.51749
H          3.94180        2.30191        1.28226
H          3.30167        0.87675        0.46219
H          6.24754        1.72435        0.70839
H          5.29930        1.68690       -0.77535
H         -6.84690       -2.62547        0.85223
H         -6.17497       -1.92821        2.33537
H         -6.20591       -3.68101        2.10843
