68
MOLECULE0-opt-22-21-20-18-332.log	Energy: -992568.8893513
C          0.14375        4.54580       -0.39546
C         -1.17460        4.18299       -0.63730
C         -1.65734        2.98577       -0.10904
C         -0.76786        2.20350        0.63556
N          0.49627        2.54496        0.88107
C          0.93538        3.69846        0.37131
C         -3.05768        2.53168       -0.29432
C         -4.10470        3.42324       -0.53101
C         -5.37360        2.86577       -0.64453
N         -5.61585        1.56541       -0.53742
C         -4.53350        0.79790       -0.30834
N         -3.26977        1.21738       -0.18457
N         -4.77675       -0.53873       -0.19101
C         -3.78236       -1.51902        0.07536
C         -3.67896       -2.08107        1.35357
C         -2.68345       -3.03640        1.56394
C         -1.81463       -3.41895        0.55060
C         -1.91663       -2.83283       -0.71063
C         -2.91104       -1.88836       -0.94384
N         -1.03947       -3.19186       -1.76709
C          0.32756       -3.37519       -1.70795
C          1.09340       -2.64106       -0.65055
C          0.71204       -1.38648       -0.16511
C          1.51154       -0.72418        0.75594
C          2.70665       -1.28847        1.20698
C          3.07387       -2.54723        0.72833
C          2.28593       -3.21168       -0.20350
C          3.60737       -0.51173        2.15523
N          4.54273        0.43710        1.57347
C          3.99242        1.66212        1.00222
C          3.74678        1.58659       -0.51456
N          4.90720        1.11471       -1.26550
C          5.96574        2.09984       -1.39013
C          5.35367       -0.16633       -0.72442
C          5.64007       -0.11084        0.78536
O          0.88781       -4.07644       -2.53429
C         -4.59991       -1.64454        2.46176
H          0.55523        5.46463       -0.79915
H         -1.81121        4.81519       -1.24940
H         -1.11112        1.25929        1.05044
H          1.97212        3.95004        0.58393
H         -3.95643        4.49405       -0.59018
H         -6.24141        3.49800       -0.82264
H         -5.75327       -0.79301       -0.16781
H         -2.58396       -3.49049        2.54602
H         -1.04743       -4.16343        0.73649
H         -2.99401       -1.41240       -1.91546
H         -1.45049       -3.64130       -2.57549
H         -0.20198       -0.91525       -0.51289
H          1.22461        0.26386        1.10822
H          3.99718       -3.00532        1.07622
H          2.58723       -4.17388       -0.60512
H          2.97895        0.04660        2.85946
H          4.19484       -1.22312        2.74995
H          3.05617        1.90287        1.51773
H          4.70031        2.47916        1.21205
H          3.45818        2.57305       -0.89894
H          2.91686        0.90172       -0.71957
H          6.43888        2.41503       -0.44308
H          5.56234        2.99709       -1.87275
H          6.75390        1.69824       -2.03665
H          6.25274       -0.48502       -1.26612
H          4.56785       -0.90413       -0.92455
H          6.52940        0.51355        0.95949
H          5.88031       -1.11147        1.16246
H         -5.64508       -1.89772        2.24796
H         -4.55398       -0.55921        2.60189
H         -4.32919       -2.12369        3.40631
