%RWF=/scratch/bdw2292/Gau-MOLECULE0/,100GB
%Nosave
%Chk=MOLECULE0-opt-2-3-7-8-227.chk
%Mem=20GB
%Nproc=6
#P opt=(,maxcycle=400) wB97XD/6-31G* MaxDisk=100GB

MOLECULE0 Rotatable Bond Optimization on node37.bme.utexas.edu

0 1
 C   -0.183958    4.274273   -0.929281
 C    1.149256    4.182184   -0.512893
 C    1.863812    2.988478   -0.723868
 C    1.167547    1.931707   -1.351010
 N   -0.107654    2.004612   -1.754149
 C   -0.763531    3.157752   -1.543934
 C    3.284843    2.802699   -0.288992
 C    4.314296    2.265288   -1.072021
 C    5.571679    2.228167   -0.458522
 N    5.817392    2.649821    0.780127
 C    4.756021    3.134351    1.460328
 N    3.518815    3.220223    0.967046
 N    5.013511    3.568198    2.750440
 C    4.172015    4.065843    3.812597
 C    4.680259    4.097479    5.146993
 C    3.829486    4.599435    6.146323
 C    2.521350    5.037645    5.910751
 C    2.032159    4.985737    4.601507
 C    2.866762    4.515706    3.574265
 N    0.711471    5.349648    4.186036
 C   -0.408658    5.677416    4.912552
 C   -1.725501    5.739605    4.163568
 C   -2.046429    4.859157    3.116835
 C   -3.260260    4.981113    2.437556
 C   -4.193758    5.978464    2.777339
 C   -3.868633    6.838488    3.844430
 C   -2.664663    6.712398    4.541666
 C   -5.485523    6.157893    1.977334
 N   -5.445678    6.944360    0.730852
 C   -4.839185    6.343571   -0.477728
 C   -3.338814    6.683247   -0.666535
 N   -3.037338    8.133100   -0.646440
 C   -3.245238    8.872493   -1.897027
 C   -3.625163    8.733838    0.576933
 C   -5.119730    8.387106    0.810009
 O   -0.371550    5.932661    6.105350
 C    6.072995    3.622737    5.525164
 H   -0.753454    5.187438   -0.787165
 H    1.623168    5.038119   -0.037627
 H    1.664059    0.978972   -1.525045
 H   -1.797394    3.184782   -1.884396
 H    4.173961    1.919452   -2.089753
 H    6.434101    1.839682   -0.999273
 H    5.984472    3.408635    2.973660
 H    4.185596    4.643846    7.174979
 H    1.889525    5.392678    6.715833
 H    2.488194    4.463168    2.564007
 H    0.564580    5.287780    3.188319
 H   -1.344634    4.074907    2.842512
 H   -3.474947    4.288443    1.623533
 H   -4.559867    7.628334    4.137669
 H   -2.424344    7.372781    5.370976
 H   -5.881099    5.163816    1.722682
 H   -6.236553    6.629812    2.627287
 H   -5.035967    5.313846   -0.522443
 H   -5.571160    6.988636   -1.721555
 H   -2.935084    6.129254   -2.033753
 H   -2.714624    6.193109    0.100121
 H   -4.306281    8.894395   -2.170183
 H   -2.678995    8.405452   -2.710769
 H   -2.888248    9.903249   -1.790014
 H   -3.461871    9.872994    0.561700
 H   -2.865015    8.196266    1.720970
 H   -5.898863    9.100417   -0.368403
 H   -5.501782    8.818617    1.748210
 H    6.849240    4.244812    5.057614
 H    6.244534    2.584721    5.207050
 H    6.256646    3.650992    6.608054

8 7 3 2 F
12 7 3 2 F
8 7 3 4 F
12 7 3 4 F
14 13 11 12 F
14 13 11 10 F
15 14 13 11 F
19 14 13 11 F
19 18 20 21 F
17 18 20 21 F
22 21 20 18 F
36 21 20 18 F
20 21 22 23 F
36 21 22 23 F
36 21 22 27 F
20 21 22 27 F
29 28 25 24 F
29 28 25 26 F
25 28 29 35 F
25 28 29 30 F

