68
MOLECULE0-opt-2-3-7-8-059.log	Energy: -992571.3958249
C         -0.47350        4.27485       -0.77185
C          0.87106        4.19233       -0.43061
C          1.54757        2.99036       -0.63161
C          0.82119        1.92618       -1.18247
N         -0.46780        1.98976       -1.51150
C         -1.09680        3.14980       -1.30061
C          2.96943        2.78929       -0.25388
C          3.90038        3.81930       -0.15441
C          5.18626        3.44678        0.23572
N          5.54560        2.19746        0.49711
C          4.57224        1.27500        0.35471
N          3.31229        1.52364       -0.00211
N          4.96103       -0.01101        0.61319
C          4.24529       -1.21711        0.49467
C          4.96902       -2.42682        0.47978
C          4.24839       -3.60964        0.33841
C          2.86264       -3.65086        0.19542
C          2.17141       -2.44329        0.21709
C          2.85975       -1.24337        0.39371
N          0.78491       -2.30520        0.03909
C         -0.15523       -3.23236       -0.33101
C         -1.47467       -2.60085       -0.67524
C         -1.54983       -1.35782       -1.31068
C         -2.78217       -0.77852       -1.57435
C         -3.96554       -1.40978       -1.19138
C         -3.88382       -2.67728       -0.60796
C         -2.65370       -3.27422       -0.35779
C         -5.30263       -0.70412       -1.34850
N         -5.69296        0.22603       -0.29984
C         -5.02607        1.52274       -0.24764
C         -3.81612        1.57766        0.70286
N         -4.11347        1.06874        2.03889
C         -4.90222        1.97782        2.85132
C         -4.67967       -0.27465        1.93987
C         -5.91473       -0.34025        1.02607
O          0.03665       -4.43623       -0.36454
C          6.47179       -2.44263        0.59957
H         -1.03296        5.19150       -0.61919
H          1.37607        5.04553        0.01312
H          1.32538        0.98086       -1.36638
H         -2.15177        3.17650       -1.56493
H          3.66140        4.85110       -0.38029
H          5.96776        4.19696        0.33880
H          5.94220       -0.07706        0.83937
H          4.79658       -4.54834        0.32527
H          2.33370       -4.58492        0.06457
H          2.31473       -0.31198        0.41903
H          0.44641       -1.35875        0.13045
H         -0.65339       -0.83274       -1.62746
H         -2.81007        0.19093       -2.06527
H         -4.79853       -3.19719       -0.33166
H         -2.59001       -4.25680        0.09907
H         -5.30827       -0.14885       -2.29427
H         -6.09487       -1.46004       -1.42309
H         -4.72438        1.80425       -1.26366
H         -5.76744        2.26783        0.07845
H         -3.45880        2.61156        0.79248
H         -2.99128        0.98246        0.29565
H         -5.91233        2.20541        2.46741
H         -4.36451        2.92720        2.95146
H         -5.01781        1.55088        3.85353
H         -4.93823       -0.62324        2.94714
H         -3.89780       -0.93818        1.55234
H         -6.74345        0.20825        1.49808
H         -6.24855       -1.37803        0.91510
H          6.81719       -2.03114        1.55789
H          6.95214       -1.86613       -0.20170
H          6.85206       -3.46525        0.53578
