%RWF=/scratch/bdw2292/Gau-MOLECULE0/,100GB
%Nosave
%Chk=MOLECULE0-opt-25-28-29-35-272.chk
%Mem=20GB
%Nproc=6
#P opt=(,maxcycle=400) wB97XD/6-31G* MaxDisk=100GB

MOLECULE0 Rotatable Bond Optimization on node37.bme.utexas.edu

0 1
 C    0.258453    3.653540   -3.902088
 C    1.612018    3.567273   -3.548165
 C    2.090666    2.431603   -2.864298
 C    1.128493    1.426451   -2.597546
 N   -0.168017    1.487450   -2.927926
 C   -0.587023    2.589877   -3.567517
 C    3.526824    2.259434   -2.432263
 C    4.570811    3.161095   -2.694595
 C    5.828077    2.792776   -2.203490
 N    6.071793    1.679056   -1.518927
 C    5.007972    0.877492   -1.300300
 N    3.769366    1.134655   -1.730660
 N    5.273587   -0.273478   -0.573353
 C    4.477061   -1.411314   -0.184335
 C    5.128180   -2.603859    0.256435
 C    4.310230   -3.691258    0.608018
 C    2.912331   -3.667673    0.547086
 C    2.290322   -2.484335    0.138109
 C    3.077765   -1.380575   -0.224594
 N    0.882721   -2.284645    0.021327
 C   -0.121135   -3.160688   -0.316245
 C   -1.489192   -2.581994   -0.618085
 C   -1.674054   -1.348113   -1.263387
 C   -2.959595   -0.849274   -1.480269
 C   -4.102614   -1.563887   -1.075621
 C   -3.903197   -2.810857   -0.451948
 C   -2.620797   -3.321652   -0.237686
 C   -5.505026   -0.978924   -1.250239
 N   -6.014713   -0.040428   -0.232601
 C   -5.488874    1.343017   -0.203524
 C   -4.303126    1.561568    0.771161
 N   -4.571316    1.117792    2.159242
 C   -5.315248    2.047770    3.017150
 C   -5.055983   -0.283835    2.131567
 C   -6.227656   -0.538185    1.146705
 O    0.057625   -4.367438   -0.356823
 C    6.637745   -2.752328    0.339756
 H   -0.132169    4.522231   -4.423812
 H    2.263077    4.399505   -3.804020
 H    1.431793    0.509336   -2.104623
 H   -1.644072    2.616242   -3.827173
 H    4.452494    4.083745   -3.249502
 H    6.692561    3.434270   -2.372187
 H    6.259836   -0.318801   -0.365326
 H    4.773192   -4.622289    0.932549
 H    2.315511   -4.535211    0.801304
 H    2.600205   -0.470536   -0.549313
 H    0.592707   -1.323411    0.138245
 H   -0.809556   -0.777435   -1.593415
 H   -3.062094    0.120350   -1.967152
 H   -4.759073   -3.394142   -0.112850
 H   -2.474681   -4.282972    0.248651
 H   -5.549181   -0.458815   -2.218132
 H   -6.224585   -1.808788   -1.301502
 H   -5.285959    1.684747   -1.172492
 H   -6.653133    2.255039    0.352738
 H   -4.016843    3.028456    0.791125
 H   -3.355023    1.023643    0.402863
 H   -6.338362    2.189483    2.651120
 H   -4.811761    3.020659    3.046952
 H   -5.358414    1.661801    4.042132
 H   -5.326215   -0.613787    3.191005
 H   -3.907262   -1.126401    1.681252
 H   -7.450118    0.267449    1.741592
 H   -6.526225   -1.598207    1.131921
 H    7.068257   -2.058005    1.075092
 H    7.116409   -2.547961   -0.628353
 H    6.953812   -3.761501    0.638138

25 28 29 35 F
25 28 29 30 F
12 11 13 14 F
10 11 13 14 F
19 18 20 21 F
17 18 20 21 F
36 21 22 23 F
20 21 22 23 F
36 21 22 27 F
20 21 22 27 F
24 25 28 29 F
26 25 28 29 F

