68
MOLECULE0-opt-25-28-29-35-236.log	Energy: -992571.3958751
C         -0.47387        4.27496       -0.77122
C          0.87072        4.19233       -0.43014
C          1.54719        2.99038       -0.63139
C          0.82071        1.92630       -1.18234
N         -0.46830        1.99000       -1.51125
C         -1.09725        3.15001       -1.30012
C          2.96911        2.78931       -0.25388
C          3.90003        3.81937       -0.15453
C          5.18599        3.44692        0.23535
N          5.54544        2.19761        0.49666
C          4.57212        1.27510        0.35440
N          3.31207        1.52368       -0.00219
N          4.96095       -0.01086        0.61304
C          4.24526       -1.21699        0.49460
C          4.96907       -2.42666        0.47953
C          4.24847       -3.60952        0.33836
C          2.86270       -3.65083        0.19569
C          2.17140       -2.44330        0.21750
C          2.85969       -1.24332        0.39395
N          0.78485       -2.30535        0.03981
C         -0.15516       -3.23253       -0.33067
C         -1.47456       -2.60100       -0.67509
C         -1.54956       -1.35800       -1.31056
C         -2.78186       -0.77866       -1.57443
C         -3.96531       -1.40984       -1.19159
C         -3.88372       -2.67735       -0.60815
C         -2.65366       -3.27433       -0.35781
C         -5.30231       -0.70402       -1.34880
N         -5.69267        0.22604       -0.30005
C         -5.02568        1.52273       -0.24775
C         -3.81581        1.57760        0.70287
N         -4.11325        1.06851        2.03880
C         -4.90208        1.97743        2.85128
C         -4.67932       -0.27489        1.93960
C         -5.91442       -0.34033        1.02582
O          0.03681       -4.43637       -0.36440
C          6.47186       -2.44238        0.59900
H         -1.03330        5.19160       -0.61835
H          1.37578        5.04544        0.01372
H          1.32484        0.98099       -1.36646
H         -2.15224        3.17678       -1.56435
H          3.66097        4.85116       -0.38036
H          5.96749        4.19712        0.33825
H          5.94217       -0.07688        0.83903
H          4.79673       -4.54819        0.32506
H          2.33378       -4.58492        0.06496
H          2.31462       -0.31197        0.41939
H          0.44630       -1.35890        0.13096
H         -0.65307       -0.83296       -1.62725
H         -2.80963        0.19077       -2.06540
H         -4.79849       -3.19722       -0.33201
H         -2.59008       -4.25691        0.09906
H         -5.30778       -0.14861       -2.29449
H         -6.09466       -1.45981       -1.42356
H         -4.72393        1.80425       -1.26375
H         -5.76707        2.26783        0.07831
H         -3.45857        2.61154        0.79263
H         -2.99089        0.98253        0.29564
H         -5.91220        2.20499        2.46736
H         -4.36447        2.92686        2.95153
H         -5.01769        1.55041        3.85346
H         -4.93793       -0.62359        2.94679
H         -3.89746       -0.93832        1.55203
H         -6.74305        0.20820        1.49792
H         -6.24834       -1.37806        0.91475
H          6.81741       -2.03124        1.55741
H          6.95201       -1.86553       -0.20214
H          6.85221       -3.46494        0.53469
