68
MOLECULE0-opt-15-14-13-11-027.log	Energy: -992566.8108203
C          8.51496       -0.75213       -2.31335
C          7.90429        0.34946       -1.73011
C          6.62731        0.20960       -1.18547
C          6.03251       -1.05730       -1.25301
N          6.60718       -2.12252       -1.80956
C          7.82649       -1.96088       -2.32879
C          5.89966        1.33377       -0.54557
C          6.26867        2.67001       -0.70835
C          5.49337        3.61113       -0.04043
N          4.44877        3.29982        0.71713
C          4.17244        1.98474        0.79310
N          4.84306        0.99625        0.19904
N          3.09246        1.65785        1.56529
C          2.49011        0.37308        1.63080
C          3.14427       -0.70882        2.23599
C          2.45429       -1.92048        2.27719
C          1.16847       -2.08109        1.77519
C          0.52640       -0.98523        1.19566
C          1.20194        0.23335        1.12294
N         -0.76798       -1.03784        0.64350
C         -1.69080       -2.05146        0.72203
C         -2.97924       -1.76771        0.00372
C         -3.05643       -0.98125       -1.14837
C         -4.28317       -0.76172       -1.76388
C         -5.45791       -1.30267       -1.23934
C         -5.36377       -2.12180       -0.11151
C         -4.14122       -2.35782        0.50214
C         -6.81011       -0.98967       -1.86369
N         -7.51247        0.19793       -1.40730
C         -6.98761        1.49528       -1.81630
C         -6.02509        2.12745       -0.79624
N         -6.57629        2.18061        0.55477
C         -7.58453        3.20972        0.73856
C         -7.01150        0.84765        0.96503
C         -7.99178        0.20264       -0.02984
O         -1.51473       -3.09361        1.33061
C          4.51890       -0.58069        2.83055
H          9.50825       -0.67887       -2.74340
H          8.42874        1.29920       -1.68610
H          5.04166       -1.19930       -0.83041
H          8.27593       -2.84501       -2.77583
H          7.09564        2.97862       -1.33479
H          5.72034        4.67227       -0.12424
H          2.53744        2.45500        1.84096
H          2.93758       -2.77739        2.73928
H          0.65963       -3.03170        1.84382
H          0.73059        1.09375        0.65209
H         -1.09748       -0.17199        0.24386
H         -2.15599       -0.56980       -1.59770
H         -4.32863       -0.15924       -2.66831
H         -6.26396       -2.57765        0.29420
H         -4.06619       -3.00187        1.37222
H         -6.68545       -0.89395       -2.94930
H         -7.47791       -1.84454       -1.69837
H         -6.49515        1.38731       -2.78955
H         -7.84121        2.17250       -1.96808
H         -5.76228        3.14513       -1.11023
H         -5.09724        1.54501       -0.75240
H         -8.50574        3.08675        0.14247
H         -7.15127        4.18298        0.48360
H         -7.87465        3.23983        1.79451
H         -7.47470        0.91793        1.95652
H         -6.11693        0.22144        1.06184
H         -8.94404        0.75294       -0.00481
H         -8.21595       -0.82731        0.27017
H          4.65250        0.39751        3.30360
H          5.28635       -0.67209        2.05471
H          4.68935       -1.35632        3.58277
