68
MOLECULE0-opt-23-22-21-36-275.log	Energy: -992571.9110729
C         -0.60510        4.16818       -0.06417
C          0.77361        4.15657        0.10595
C          1.47663        2.98231       -0.16078
C          0.73673        1.87460       -0.59826
N         -0.58459        1.86881       -0.75373
C         -1.24206        3.00387       -0.48643
C          2.94094        2.84695        0.03011
C          3.83072        3.91825        0.08729
C          5.16934        3.59452        0.29774
N          5.62103        2.35178        0.42074
C          4.68092        1.39196        0.32500
N          3.37667        1.59114        0.15396
N          5.14915        0.10767        0.41871
C          4.45963       -1.10114        0.20294
C          5.19221       -2.22451       -0.22655
C          4.48930       -3.40294       -0.46123
C          3.10930       -3.51114       -0.31055
C          2.40623       -2.38998        0.12495
C          3.08757       -1.20699        0.40962
N          1.01050       -2.34967        0.31379
C          0.06349       -3.22582       -0.15324
C         -1.34933       -2.80267        0.13641
C         -2.33952       -3.16973       -0.77387
C         -3.66138       -2.80533       -0.55253
C         -4.03074       -2.08543        0.58596
C         -3.03759       -1.74984        1.50782
C         -1.71003       -2.09320        1.28506
C         -5.48354       -1.69752        0.81975
N         -5.91133       -0.36512        0.43443
C         -5.85092       -0.03451       -0.98377
C         -4.58428        0.73949       -1.38202
N         -4.36533        1.92304       -0.55032
C         -5.28608        3.01495       -0.81976
C         -4.31048        1.52387        0.85467
C         -5.56210        0.75184        1.30151
O          0.31707       -4.25108       -0.76325
C          6.68217       -2.15121       -0.44347
H         -1.18310        5.06334        0.14129
H          1.28830        5.04317        0.46603
H          1.25806        0.95138       -0.83713
H         -2.32379        2.95049       -0.61303
H          3.51856        4.94779       -0.03647
H          5.92024        4.37928        0.36455
H          6.15522        0.06447        0.48039
H          5.04195       -4.27618       -0.79853
H          2.58996       -4.43049       -0.54014
H          2.54161       -0.34152        0.75610
H          0.65785       -1.45688        0.62788
H         -2.05685       -3.74763       -1.64778
H         -4.42440       -3.09782       -1.27029
H         -3.30830       -1.22500        2.42129
H         -0.96399       -1.84560        2.03568
H         -6.11948       -2.41197        0.28103
H         -5.71524       -1.81795        1.88490
H         -5.92445       -0.95973       -1.56551
H         -6.73656        0.56766       -1.23718
H         -4.64604        1.05143       -2.43133
H         -3.70146        0.09777       -1.27805
H         -6.34809        2.80479       -0.60904
H         -5.20485        3.29398       -1.87577
H         -4.99438        3.88349       -0.21814
H         -4.18005        2.42110        1.47266
H         -3.41632        0.90158        0.97916
H         -6.41574        1.44633        1.32692
H         -5.43190        0.37934        2.32366
H          7.22674       -1.94276        0.48769
H          6.95085       -1.37096       -1.16664
H          7.06253       -3.10018       -0.83009
