68
MOLECULE0-opt-21-20-18-19-198.log	Energy: -992571.3958375
C         -0.47355        4.27516       -0.77184
C          0.87097        4.19246       -0.43051
C          1.54736        2.99042       -0.63152
C          0.82088        1.92634       -1.18243
N         -0.46807        1.99010       -1.51158
C         -1.09694        3.15020       -1.30070
C          2.96921        2.78926       -0.25381
C          3.90022        3.81923       -0.15459
C          5.18616        3.44668        0.23534
N          5.54549        2.19737        0.49676
C          4.57204        1.27495        0.35465
N          3.31203        1.52362       -0.00195
N          4.96077       -0.01102        0.61337
C          4.24507       -1.21712        0.49476
C          4.96886       -2.42680        0.47984
C          4.24827       -3.60964        0.33845
C          2.86253       -3.65092        0.19550
C          2.17124       -2.44337        0.21720
C          2.85953       -1.24341        0.39380
N          0.78472       -2.30539        0.03936
C         -0.15529       -3.23253       -0.33118
C         -1.47474       -2.60100       -0.67542
C         -1.54985       -1.35796       -1.31082
C         -2.78217       -0.77861       -1.57445
C         -3.96556       -1.40984       -1.19146
C         -3.88388       -2.67737       -0.60812
C         -2.65377       -3.27436       -0.35800
C         -5.30257       -0.70402       -1.34842
N         -5.69257        0.22612       -0.29962
C         -5.02557        1.52277       -0.24748
C         -3.81561        1.57765        0.70300
N         -4.11293        1.06871        2.03904
C         -4.90174        1.97778        2.85142
C         -4.67914       -0.27466        1.93998
C         -5.91427       -0.34019        1.02628
O          0.03670       -4.43637       -0.36503
C          6.47163       -2.44255        0.59963
H         -1.03292        5.19186       -0.61917
H          1.37603        5.04558        0.01331
H          1.32497        0.98097       -1.36634
H         -2.15188        3.17705       -1.56515
H          3.66131        4.85102       -0.38056
H          5.96773        4.19683        0.33815
H          5.94202       -0.07712        0.83919
H          4.79651       -4.54833        0.32531
H          2.33359       -4.58498        0.06466
H          2.31448       -0.31204        0.41921
H          0.44614       -1.35899        0.13093
H         -0.65338       -0.83296       -1.62765
H         -2.81007        0.19086       -2.06533
H         -4.79861       -3.19727       -0.33185
H         -2.59009       -4.25695        0.09884
H         -5.30829       -0.14868       -2.29415
H         -6.09494       -1.45982       -1.42293
H         -4.72384        1.80421       -1.26350
H         -5.76689        2.26794        0.07855
H         -3.45827        2.61153        0.79263
H         -2.99080        0.98244        0.29575
H         -5.91179        2.20543        2.46739
H         -4.36400        2.92713        2.95168
H         -5.01748        1.55079        3.85359
H         -4.93764       -0.62330        2.94725
H         -3.89732       -0.93815        1.55239
H         -6.74294        0.20828        1.49838
H         -6.24808       -1.37795        0.91529
H          6.81702       -2.03089        1.55787
H          6.95196       -1.86620       -0.20175
H          6.85191       -3.46518        0.53604
