68
MOLECULE0-opt-25-28-29-35-056.log	Energy: -992572.0343095
C          0.71928        4.65604       -0.58750
C          2.04288        4.40104       -0.25110
C          2.54773        3.11238       -0.41775
C          1.67820        2.14182       -0.93296
N          0.40485        2.36879       -1.24976
C         -0.05843        3.60963       -1.07182
C          3.92963        2.72631       -0.03685
C          4.98344        3.62705        0.09109
C          6.20512        3.08636        0.48983
N          6.40037        1.79598        0.72567
C          5.32003        1.00832        0.54897
N          4.10505        1.42291        0.19301
N          5.53851       -0.32360        0.76950
C          4.68825       -1.42504        0.55147
C          5.27524       -2.69768        0.40652
C          4.42798       -3.77495        0.16465
C          3.04635       -3.64896        0.04522
C          2.48727       -2.38268        0.20022
C          3.30609       -1.28752        0.47987
N          1.11648       -2.09506        0.07440
C          0.09927       -2.89961       -0.37234
C         -1.20355       -2.18058       -0.58142
C         -1.28680       -0.82278       -0.89728
C         -2.52813       -0.21969       -1.06960
C         -3.70426       -0.95478       -0.94286
C         -3.61606       -2.31863       -0.64638
C         -2.38131       -2.92558       -0.47464
C         -5.05300       -0.29910       -1.14935
N         -6.03565       -0.74728       -0.17170
C         -7.40980       -0.37653       -0.50805
C         -7.71623        1.10418       -0.23273
N         -7.40753        1.50907        1.13752
C         -8.39058        1.06470        2.10976
C         -6.03641        1.13137        1.47868
C         -5.72853       -0.34778        1.20465
O          0.21709       -4.09790       -0.57231
C          6.76800       -2.88931        0.49473
H          0.29007        5.64423       -0.46173
H          2.66385        5.19113        0.16118
H          2.04872        1.13331       -1.09617
H         -1.10306        3.77171       -1.32688
H          4.88031        4.68509       -0.11486
H          7.07351        3.72897        0.62082
H          6.50289       -0.52346        0.98881
H          4.86890       -4.76168        0.04757
H          2.41764       -4.50155       -0.16853
H          2.86864       -0.30860        0.60888
H          0.86561       -1.14204        0.28995
H         -0.40176       -0.20916       -1.04546
H         -2.56860        0.83981       -1.31006
H         -4.53347       -2.88856       -0.53534
H         -2.30599       -3.98546       -0.25411
H         -4.91156        0.79617       -1.17857
H         -5.43529       -0.58132       -2.13927
H         -7.59584       -0.61747       -1.56109
H         -8.07912       -1.00953        0.08977
H         -8.77124        1.32072       -0.43691
H         -7.12202        1.73354       -0.90955
H         -8.48460       -0.02959        2.22442
H         -9.37442        1.45485        1.82754
H         -8.13641        1.48047        3.09066
H         -5.85559        1.36833        2.53346
H         -5.35908        1.76402        0.88886
H         -6.32525       -0.98216        1.87287
H         -4.67623       -0.56645        1.41178
H          7.16470       -2.62068        1.48341
H          7.30334       -2.28923       -0.25223
H          7.03024       -3.93586        0.32034
