%RWF=/scratch/bdw2292/Gau-MOLECULE0/,100GB
%Nosave
%Chk=MOLECULE0-opt-23-22-21-36-305.chk
%Mem=20GB
%Nproc=6
#P opt=(maxcycle=5,Loose) wB97XD/6-31G* MaxDisk=100GB

MOLECULE0 Rotatable Bond Optimization on node37.bme.utexas.edu

0 1
 C   -3.706713   -0.676771    6.205172
 C   -2.812522   -1.551543    6.838613
 C   -1.760014   -2.133213    6.104752
 C   -1.695766   -1.778455    4.734525
 N   -2.538923   -0.945995    4.114187
 C   -3.523791   -0.401039    4.844668
 C   -0.700369   -3.021545    6.708169
 C   -0.537830   -3.280450    8.079144
 C    0.593221   -4.029024    8.428675
 N    1.487302   -4.493527    7.557377
 C    1.235817   -4.222492    6.260870
 N    0.180052   -3.533484    5.828674
 N    2.164349   -4.702377    5.353250
 C    2.297794   -4.569958    3.922365
 C    3.550576   -4.860075    3.301627
 C    3.653243   -4.623895    1.920072
 C    2.596404   -4.168932    1.122449
 C    1.345372   -3.990524    1.722372
 C    1.227340   -4.173810    3.108919
 N    0.142953   -3.602495    1.045273
 C   -0.075945   -3.171763   -0.242713
 C   -1.447821   -2.592356   -0.521371
 C   -1.564005   -1.312012   -1.082430
 C   -2.826563   -0.764364   -1.326736
 C   -4.003707   -1.517283   -1.143555
 C   -3.869448   -2.800066   -0.578959
 C   -2.616576   -3.323212   -0.249785
 C   -5.375600   -0.940038   -1.498579
 N   -6.112271   -0.076428   -0.562572
 C   -5.680052    1.326583   -0.363380
 C   -4.778932    1.565537    0.878657
 N   -5.334046    1.034476    2.149009
 C   -6.363412    1.860817    2.791238
 C   -5.660173   -0.394542    1.937264
 C   -6.573408   -0.661775    0.716903
 O    0.758599   -3.255421   -1.128207
 C    4.770580   -5.337683    4.071131
 H   -4.519989   -0.208941    6.751862
 H   -2.948576   -1.756985    7.897785
 H   -0.895761   -2.152962    4.104348
 H   -4.180854    0.289545    4.319035
 H   -1.192382   -2.903504    8.855288
 H    0.824899   -4.267184    9.466543
 H    2.916297   -5.153184    5.852260
 H    4.606956   -4.796321    1.422857
 H    2.716973   -4.001969    0.059297
 H    0.268050   -4.022330    3.575751
 H   -0.676813   -3.576726    1.636009
 H   -0.659156   -0.749685   -1.298021
 H   -2.889437    0.247754   -1.725426
 H   -4.756390   -3.402294   -0.382916
 H   -2.531548   -4.318951    0.179036
 H   -5.257577   -0.373287   -2.433280
 H   -6.048742   -1.780351   -1.721789
 H   -5.158948    1.741575   -1.345080
 H   -6.913977    2.131242   -0.175955
 H   -4.537484    2.824944    1.019027
 H   -3.509987    0.907164    0.674829
 H   -7.257352    1.935736    2.162235
 H   -5.976496    2.869303    2.977698
 H   -6.648127    1.426513    3.756838
 H   -6.192546   -0.867035    3.001516
 H   -4.335417   -1.119389    1.726683
 H   -7.897947   -0.058764    1.011369
 H   -6.763540   -1.851943    0.588641
 H    4.594180   -6.284840    4.600709
 H    5.075645   -4.601250    4.819908
 H    5.636937   -5.504946    3.425976

36 21 22 23 F
20 21 22 23 F
36 21 22 27 F
20 21 22 27 F
12 11 13 14 F
10 11 13 14 F
19 18 20 21 F
17 18 20 21 F
24 25 28 29 F
26 25 28 29 F
25 28 29 35 F
25 28 29 30 F

