68
MOLECULE0-opt-23-22-21-36-299.log	Energy: -992571.3958312
C         -0.47356        4.27507       -0.77181
C          0.87098        4.19241       -0.43055
C          1.54738        2.99038       -0.63155
C          0.82091        1.92627       -1.18244
N         -0.46805        1.99000       -1.51152
C         -1.09695        3.15008       -1.30061
C          2.96924        2.78924       -0.25382
C          3.90027        3.81922       -0.15466
C          5.18616        3.44670        0.23538
N          5.54548        2.19740        0.49688
C          4.57206        1.27497        0.35475
N          3.31204        1.52362       -0.00188
N          4.96079       -0.01099        0.61354
C          4.24510       -1.21709        0.49482
C          4.96892       -2.42674        0.47959
C          4.24834       -3.60959        0.33816
C          2.86258       -3.65087        0.19542
C          2.17127       -2.44335        0.21736
C          2.85955       -1.24339        0.39409
N          0.78471       -2.30538        0.03968
C         -0.15528       -3.23252       -0.33093
C         -1.47473       -2.60103       -0.67519
C         -1.54982       -1.35804       -1.31072
C         -2.78213       -0.77870       -1.57444
C         -3.96552       -1.40988       -1.19142
C         -3.88387       -2.67735       -0.60795
C         -2.65378       -3.27434       -0.35774
C         -5.30255       -0.70412       -1.34848
N         -5.69272        0.22606       -0.29975
C         -5.02579        1.52277       -0.24766
C         -3.81580        1.57777        0.70277
N         -4.11300        1.06882        2.03883
C         -4.90174        1.97786        2.85131
C         -4.67913       -0.27460        1.93983
C         -5.91430       -0.34021        1.02619
O          0.03675       -4.43635       -0.36490
C          6.47171       -2.44247        0.59913
H         -1.03296        5.19175       -0.61913
H          1.37607        5.04554        0.01322
H          1.32503        0.98091       -1.36637
H         -2.15190        3.17691       -1.56499
H          3.66133        4.85098       -0.38074
H          5.96773        4.19685        0.33818
H          5.94201       -0.07706        0.83949
H          4.79660       -4.54825        0.32480
H          2.33366       -4.58494        0.06454
H          2.31445       -0.31205        0.41970
H          0.44612       -1.35898        0.13115
H         -0.65335       -0.83304       -1.62752
H         -2.80999        0.19073       -2.06540
H         -4.79861       -3.19719       -0.33162
H         -2.59016       -4.25690        0.09920
H         -5.30824       -0.14882       -2.29422
H         -6.09488       -1.45997       -1.42301
H         -4.72412        1.80418       -1.26371
H         -5.76715        2.26788        0.07834
H         -3.45857        2.61169        0.79237
H         -2.99093        0.98264        0.29548
H         -5.91182        2.20554        2.46737
H         -4.36400        2.92722        2.95157
H         -5.01741        1.55084        3.85347
H         -4.93757       -0.62323        2.94712
H         -3.89728       -0.93806        1.55222
H         -6.74298        0.20824        1.49832
H         -6.24810       -1.37799        0.91526
H          6.81725       -2.03115        1.55746
H          6.95189       -1.86579       -0.20211
H          6.85203       -3.46506        0.53507
