68
MOLECULE0-opt-25-28-29-35-356.log	Energy: -992575.5508475
C         -0.80163        3.96212       -0.33563
C          0.56490        4.09277       -0.11825
C          1.40193        3.01821       -0.41452
C          0.80637        1.86077       -0.93288
N         -0.50092        1.72027       -1.14236
C         -1.28550        2.75901       -0.83925
C          2.86506        3.03237       -0.16349
C          3.63915        4.18832       -0.11253
C          4.99564        4.00382        0.15274
N          5.55752        2.81751        0.34491
C          4.72056        1.76345        0.26175
N          3.41176        1.82873        0.02118
N          5.31017        0.54328        0.44944
C          4.75903       -0.75010        0.36584
C          5.63670       -1.84351        0.22101
C          5.07496       -3.11366        0.12024
C          3.70193       -3.34812        0.13857
C          2.85575       -2.25238        0.28532
C          3.38801       -0.97078        0.42623
N          1.45222       -2.31541        0.27526
C          0.62308       -3.36769       -0.01999
C         -0.81125       -2.95739       -0.19632
C         -1.17435       -1.70483       -0.70145
C         -2.51117       -1.36203       -0.83888
C         -3.51536       -2.25617       -0.46708
C         -3.15063       -3.51159        0.02243
C         -1.81212       -3.86715        0.14316
C         -4.97016       -1.86948       -0.63031
N         -5.20215       -0.46249       -0.35443
C         -6.49778       -0.00387       -0.83601
C         -6.62130        1.50675       -0.61493
N         -6.42543        1.91586        0.77027
C         -7.56504        1.63942        1.62794
C         -5.17185        1.36525        1.27107
C         -5.03235       -0.14380        1.05916
O          0.99377       -4.52598       -0.11900
C          7.13051       -1.64886        0.16221
H         -1.48520        4.77188       -0.10396
H          0.96777        5.00855        0.30508
H          1.43602        1.01272       -1.19056
H         -2.35095        2.61686       -1.00640
H          3.22968        5.17584       -0.28561
H          5.66598        4.85930        0.20833
H          6.30797        0.61323        0.58179
H          5.74292       -3.96398        0.00748
H          3.29401       -4.34399        0.03431
H          2.72492       -0.12733        0.54684
H          0.99508       -1.42923        0.42924
H         -0.43066       -0.98227       -1.02557
H         -2.78120       -0.38415       -1.22392
H         -3.92232       -4.21838        0.31819
H         -1.52553       -4.84549        0.51577
H         -5.26946       -2.05662       -1.67002
H         -5.60258       -2.52500        0.00040
H         -6.57403       -0.22183       -1.90758
H         -7.33150       -0.53510       -0.33446
H         -7.59985        1.86086       -0.95732
H         -5.85369        2.00177       -1.22421
H         -7.80312        0.57008        1.76237
H         -8.45234        2.12925        1.21316
H         -7.37920        2.06673        2.61914
H         -5.07558        1.60587        2.33537
H         -4.34695        1.86086        0.74172
H         -5.76746       -0.69319        1.68085
H         -4.03587       -0.46584        1.37763
H          7.53153       -1.22064        1.09118
H          7.42485       -0.98674       -0.66222
H          7.63596       -2.60554        0.00824
