%RWF=/scratch/bdw2292/Gau-MOLECULE0/,100GB
%Nosave
%Chk=MOLECULE0-opt-14-13-11-12-172.chk
%Mem=20GB
%Nproc=6
#P opt=(,maxcycle=400) wB97XD/6-31G* MaxDisk=100GB

MOLECULE0 Rotatable Bond Optimization on g2-node38.bme.utexas.edu

0 1
 C    7.495802    6.811441    1.234751
 C    6.464588    5.993948    0.753990
 C    6.551578    4.593492    0.890868
 C    7.719810    4.106227    1.527679
 N    8.714393    4.873870    1.992643
 C    8.596347    6.201288    1.845360
 C    5.484812    3.643619    0.406494
 C    4.291176    4.026614   -0.227525
 C    3.435039    2.982933   -0.590640
 N    3.684467    1.695469   -0.372039
 C    4.856259    1.418198    0.237439
 N    5.743436    2.338772    0.623965
 N    5.133498    0.081484    0.465843
 C    4.386432   -1.147922    0.331336
 C    5.101247   -2.384933    0.308811
 C    4.344866   -3.561399    0.182214
 C    2.950551   -3.583295    0.073376
 C    2.263778   -2.364841    0.096008
 C    2.989349   -1.167339    0.221236
 N    0.844890   -2.210661   -0.021560
 C   -0.141400   -3.120595   -0.324134
 C   -1.526137   -2.580622   -0.622917
 C   -1.746642   -1.362662   -1.286664
 C   -3.046581   -0.903419   -1.508399
 C   -4.167789   -1.642595   -1.086980
 C   -3.932236   -2.873064   -0.444101
 C   -2.635659   -3.344749   -0.226118
 C   -5.586269   -1.101176   -1.270997
 N   -6.125281   -0.161533   -0.271943
 C   -5.644624    1.237894   -0.269800
 C   -4.470508    1.508090    0.706030
 N   -4.734762    1.084375    2.101043
 C   -5.507448    2.010575    2.937330
 C   -5.179941   -0.331102    2.100148
 C   -6.337542   -0.639582    1.113817
 O    0.053249   -4.325477   -0.326955
 C    6.614250   -2.485872    0.407468
 H    7.448875    7.892448    1.141244
 H    5.610552    6.473462    0.282342
 H    7.851236    3.037372    1.668586
 H    9.420004    6.797266    2.234745
 H    4.015278    5.052708   -0.436947
 H    2.487789    3.197872   -1.084903
 H    6.109823   -0.009604    0.703878
 H    4.855812   -4.523334    0.159497
 H    2.408137   -4.514923   -0.032161
 H    2.466953   -0.221198    0.222250
 H    0.526966   -1.256179    0.071163
 H   -0.896493   -0.777423   -1.628403
 H   -3.184559    0.054506   -2.010349
 H   -4.771145   -3.474252   -0.094597
 H   -2.461656   -4.294612    0.273296
 H   -5.647834   -0.609148   -2.252547
 H   -6.282995   -1.950398   -1.318198
 H   -5.442685    1.569717   -1.256381
 H   -6.835469    2.122860    0.258991
 H   -4.226872    2.983395    0.698617
 H   -3.513140    0.995322    0.357947
 H   -6.532271    2.116854    2.564233
 H   -5.030552    2.997121    2.949251
 H   -5.544578    1.644343    3.969679
 H   -5.442668   -0.645864    3.158441
 H   -4.002910   -1.150713    1.669047
 H   -7.585421    0.138972    1.682304
 H   -6.605723   -1.720692    1.116523
 H    6.977735   -2.121224    1.378378
 H    7.109237   -1.893646   -0.375192
 H    6.984375   -3.514859    0.300093

14 13 11 12 F
14 13 11 10 F
15 14 13 11 F
19 14 13 11 F
19 18 20 21 F
17 18 20 21 F
22 21 20 18 F
36 21 20 18 F
20 21 22 23 F
36 21 22 23 F
36 21 22 27 F
20 21 22 27 F
29 28 25 24 F
29 28 25 26 F
25 28 29 35 F
25 28 29 30 F

