68
MOLECULE0-opt-23-22-21-36-155.log	Energy: -992569.4408819
C          1.06566        4.84804        0.14716
C          2.36961        4.38534        0.27516
C          2.68445        3.10999       -0.19127
C          1.65272        2.36919       -0.78085
N          0.39660        2.79286       -0.90116
C          0.11730        4.01409       -0.43514
C          4.03335        2.50960       -0.04033
C          5.20307        3.25920        0.04237
C          6.38291        2.53666        0.21458
N          6.43058        1.21473        0.29694
C          5.24294        0.58356        0.18848
N          4.05934        1.17509        0.02171
N          5.31965       -0.77894        0.27687
C          4.31653       -1.76450        0.24514
C          4.68245       -3.09180        0.55048
C          3.68338       -4.06025        0.52447
C          2.35485       -3.78273        0.20992
C          2.01995       -2.46730       -0.09812
C          2.99670       -1.47206       -0.07750
N          0.73245       -2.02882       -0.45574
C         -0.46656       -2.68182       -0.36625
C         -1.66065       -1.84804       -0.74970
C         -1.65315       -0.45186       -0.83158
C         -2.79904        0.23492       -1.21202
C         -3.98399       -0.44307       -1.49949
C         -3.98372       -1.83769       -1.41698
C         -2.84246       -2.53219       -1.04046
C         -5.24798        0.32231       -1.86276
N         -6.14072        0.72271       -0.78808
C         -5.65532        1.73604        0.14182
C         -5.00065        1.15648        1.40702
N         -5.84191        0.17542        2.08691
C         -6.95548        0.75814        2.81368
C         -6.23128       -0.87454        1.14956
C         -6.90319       -0.32704       -0.12101
O         -0.58020       -3.84881       -0.02611
C          6.10342       -3.45250        0.90249
H          0.78321        5.83091        0.50881
H          3.12323        4.99880        0.76058
H          1.87085        1.38372       -1.18274
H         -0.91620        4.33785       -0.53334
H          5.21354        4.33873       -0.04356
H          7.33857        3.05157        0.28954
H          6.26518       -1.09567        0.43113
H          3.95330       -5.08611        0.76228
H          1.60072       -4.55675        0.20525
H          2.72610       -0.44808       -0.28259
H          0.70240       -1.08494       -0.80710
H         -0.77619        0.14151       -0.58463
H         -2.76245        1.31963       -1.27902
H         -4.89394       -2.38631       -1.64931
H         -2.84196       -3.61466       -0.96670
H         -4.96110        1.23442       -2.40134
H         -5.83792       -0.28278       -2.56231
H         -4.95164        2.39062       -0.38516
H         -6.51042        2.36356        0.43532
H         -4.76135        1.96366        2.11016
H         -4.06003        0.65966        1.14235
H         -7.69985        1.29247        2.19743
H         -6.56781        1.46765        3.55312
H         -7.48193       -0.03542        3.35531
H         -6.90609       -1.57200        1.66035
H         -5.32517       -1.42936        0.87975
H         -7.88755        0.08774        0.14305
H         -7.08593       -1.13811       -0.83516
H          6.45426       -2.91798        1.79503
H          6.80293       -3.23047        0.08506
H          6.18794       -4.52176        1.11193
