68
MOLECULE0-opt-22-21-20-18-140.log	Energy: -992571.3958312
C         -0.47345        4.27494       -0.77165
C          0.87114        4.19238       -0.43054
C          1.54755        2.99036       -0.63154
C          0.82108        1.92618       -1.18227
N         -0.46794        1.98980       -1.51116
C         -1.09685        3.14987       -1.30026
C          2.96944        2.78926       -0.25390
C          3.90053        3.81918       -0.15490
C          5.18645        3.44659        0.23501
N          5.54572        2.19729        0.49658
C          4.57221        1.27491        0.35465
N          3.31220        1.52362       -0.00192
N          4.96088       -0.01106        0.61347
C          4.24512       -1.21714        0.49478
C          4.96885       -2.42684        0.47994
C          4.24823       -3.60966        0.33851
C          2.86249       -3.65089        0.19550
C          2.17126       -2.44332        0.21719
C          2.85959       -1.24338        0.39377
N          0.78475       -2.30526        0.03936
C         -0.15532       -3.23235       -0.33116
C         -1.47475       -2.60081       -0.67535
C         -1.54991       -1.35766       -1.31053
C         -2.78225       -0.77835       -1.57420
C         -3.96562       -1.40975       -1.19146
C         -3.88389       -2.67738       -0.60833
C         -2.65377       -3.27432       -0.35819
C         -5.30272       -0.70408       -1.34842
N         -5.69292        0.22594       -0.29960
C         -5.02631        1.52279       -0.24753
C         -3.81617        1.57802        0.70270
N         -4.11307        1.06897        2.03878
C         -4.90196        1.97778        2.85139
C         -4.67890       -0.27456        1.93981
C         -5.91419       -0.34046        1.02634
O          0.03662       -4.43620       -0.36512
C          6.47161       -2.44266        0.59978
H         -1.03287        5.19161       -0.61898
H          1.37630        5.04555        0.01308
H          1.32521        0.98081       -1.36612
H         -2.15184        3.17664       -1.56450
H          3.66159        4.85094       -0.38100
H          5.96807        4.19670        0.33766
H          5.94217       -0.07726        0.83908
H          4.79644       -4.54836        0.32538
H          2.33356       -4.58495        0.06464
H          2.31455       -0.31200        0.41907
H          0.44620       -1.35886        0.13095
H         -0.65350       -0.83242       -1.62715
H         -2.81015        0.19118       -2.06495
H         -4.79861       -3.19738       -0.33225
H         -2.59006       -4.25700        0.09845
H         -5.30846       -0.14869       -2.29412
H         -6.09498       -1.45999       -1.42300
H         -4.72493        1.80436       -1.26362
H         -5.76782        2.26772        0.07875
H         -3.45916        2.61201        0.79226
H         -2.99126        0.98308        0.29529
H         -5.91218        2.20513        2.46762
H         -4.36449        2.92730        2.95153
H         -5.01728        1.55072        3.85357
H         -4.93712       -0.62329        2.94712
H         -3.89697       -0.93780        1.55206
H         -6.74291        0.20776        1.49860
H         -6.24773       -1.37832        0.91542
H          6.81702       -2.03091        1.55798
H          6.95201       -1.86643       -0.20166
H          6.85184       -3.46532        0.53631
