68
MOLECULE0-opt-2-3-7-8-311.log	Energy: -992571.3958249
C         -0.47405        4.27501       -0.77182
C          0.87048        4.19243       -0.43051
C          1.54693        2.99039       -0.63138
C          0.82051        1.92619       -1.18214
N         -0.46845        1.98985       -1.51125
C         -1.09738        3.14994       -1.30051
C          2.96882        2.78938       -0.25368
C          3.89962        3.81951       -0.15410
C          5.18558        3.44715        0.23588
N          5.54512        2.19785        0.49700
C          4.57190        1.27525        0.35452
N          3.31184        1.52373       -0.00209
N          4.96093       -0.01068        0.61283
C          4.24529       -1.21685        0.49449
C          4.96922       -2.42641        0.47885
C          4.24869       -3.60934        0.33794
C          2.86284       -3.65076        0.19607
C          2.17143       -2.44330        0.21830
C          2.85968       -1.24326        0.39449
N          0.78472       -2.30562        0.04150
C         -0.15496       -3.23268       -0.33014
C         -1.47435       -2.60118       -0.67461
C         -1.54922       -1.35805       -1.30987
C         -2.78145       -0.77872       -1.57401
C         -3.96498       -1.41004       -1.19159
C         -3.88352       -2.67761       -0.60832
C         -2.65350       -3.27461       -0.35778
C         -5.30194       -0.70423       -1.34906
N         -5.69232        0.22592       -0.30041
C         -5.02539        1.52259       -0.24804
C         -3.81573        1.57746        0.70281
N         -4.11350        1.06855        2.03875
C         -4.90253        1.97764        2.85086
C         -4.67964       -0.27484        1.93953
C         -5.91444       -0.34045        1.02540
O          0.03729       -4.43646       -0.36473
C          6.47209       -2.44198        0.59749
H         -1.03349        5.19169       -0.61931
H          1.37556        5.04563        0.01311
H          1.32467        0.98083       -1.36593
H         -2.15233        3.17670       -1.56492
H          3.66047        4.85128       -0.37990
H          5.96697        4.19744        0.33906
H          5.94210       -0.07660        0.83902
H          4.79704       -4.54795        0.32427
H          2.33392       -4.58488        0.06555
H          2.31454       -0.31194        0.42030
H          0.44601       -1.35927        0.13311
H         -0.65263       -0.83295       -1.62619
H         -2.80916        0.19078       -2.06484
H         -4.79835       -3.19754       -0.33248
H         -2.59000       -4.25727        0.09895
H         -5.30731       -0.14895       -2.29483
H         -6.09429       -1.46003       -1.42382
H         -4.72330        1.80404       -1.26398
H         -5.76684        2.26777        0.07778
H         -3.45844        2.61126        0.79253
H         -2.99082        0.98222        0.29583
H         -5.91246        2.20534        2.46651
H         -4.36481        2.92698        2.95130
H         -5.01863        1.55067        3.85300
H         -4.93849       -0.62347        2.94670
H         -3.89765       -0.93834        1.55218
H         -6.74323        0.20792        1.49718
H         -6.24815       -1.37823        0.91426
H          6.81811       -2.03133        1.55595
H          6.95169       -1.86459       -0.20357
H          6.85257       -3.46444        0.53239
