%RWF=/scratch/bdw2292/Gau-MOLECULE0/,100GB
%Nosave
%Chk=MOLECULE0-opt-15-14-13-11-055.chk
%Mem=20GB
%Nproc=6
#P opt=(,maxcycle=400) wB97XD/6-31G* MaxDisk=100GB

MOLECULE0 Rotatable Bond Optimization on g2-node38.bme.utexas.edu

0 1
 C    9.325593   -0.872493   -5.367282
 C    9.053919   -0.079719   -4.244382
 C    8.029878   -0.450910   -3.349732
 C    7.328163   -1.640022   -3.670315
 N    7.575586   -2.407571   -4.739960
 C    8.557770   -2.024298   -5.568000
 C    7.671522    0.344087   -2.119770
 C    8.288905    1.538466   -1.712217
 C    7.789312    2.112823   -0.537828
 N    6.798123    1.601930    0.187196
 C    6.274009    0.449706   -0.278510
 N    6.671279   -0.177573   -1.385080
 N    5.244952   -0.082720    0.466706
 C    4.510230   -1.296602    0.344466
 C    5.173198   -2.559322    0.314024
 C    4.366243   -3.698689    0.169829
 C    2.973036   -3.655489    0.055627
 C    2.337554   -2.409736    0.107715
 C    3.113615   -1.246011    0.254589
 N    0.925626   -2.198648   -0.005003
 C   -0.088937   -3.070316   -0.328246
 C   -1.455968   -2.486787   -0.623582
 C   -1.643914   -1.254936   -1.271138
 C   -2.931670   -0.760963   -1.491069
 C   -4.072472   -1.484438   -1.095312
 C   -3.869096   -2.726007   -0.462819
 C   -2.585209   -3.226706   -0.236776
 C   -5.480154   -0.919224   -1.290590
 N   -6.021925    0.016646   -0.289184
 C   -5.523281    1.409305   -0.260686
 C   -4.359618    1.652002    0.734470
 N   -4.647130    1.212332    2.119910
 C   -5.420620    2.135881    2.958531
 C   -5.107798   -0.197548    2.093285
 C   -6.255932   -0.476990    1.087858
 O    0.069075   -4.280047   -0.358284
 C    6.674388   -2.745010    0.461669
 H   10.109623   -0.606031   -6.069802
 H    9.652101    0.815240   -4.092232
 H    6.521872   -1.982713   -3.027260
 H    8.732088   -2.669308   -6.427697
 H    9.098231    2.016664   -2.249959
 H    8.212545    3.042447   -0.158674
 H    5.058211    0.466555    1.293715
 H    4.834295   -4.681800    0.138441
 H    2.392418   -4.561515   -0.066293
 H    2.653864   -0.267238    0.275080
 H    0.638853   -1.236266    0.104818
 H   -0.777712   -0.685395   -1.598716
 H   -3.044525    0.205920   -1.981994
 H   -4.723416   -3.315093   -0.130044
 H   -2.437004   -4.187863    0.248972
 H   -5.517860   -0.412006   -2.265618
 H   -6.187678   -1.758720   -1.352405
 H   -5.306928    1.751677   -1.236195
 H   -6.714299    2.303772    0.269452
 H   -4.100515    3.127309    0.751134
 H   -3.405357    1.134865    0.391924
 H   -6.439414    2.257802    2.573841
 H   -4.933810    3.117266    2.989112
 H   -5.475106    1.757032    3.985658
 H   -5.385933   -0.522851    3.137280
 H   -3.935415   -1.024071    1.666297
 H   -7.502853    0.306681    1.651815
 H   -6.537251   -1.566020    1.072930
 H    7.122139   -1.999041    1.132580
 H    7.185356   -2.665495   -0.507148
 H    6.935429   -3.727106    0.880178

15 14 13 11 F
19 14 13 11 F
14 13 11 12 F
14 13 11 10 F
19 18 20 21 F
17 18 20 21 F
22 21 20 18 F
36 21 20 18 F
20 21 22 23 F
36 21 22 23 F
36 21 22 27 F
20 21 22 27 F
29 28 25 24 F
29 28 25 26 F
25 28 29 35 F
25 28 29 30 F

