68
MOLECULE0-opt-23-22-21-20-066.log	Energy: -992571.3957371
C         -0.47380        4.27473       -0.77242
C          0.87070        4.19223       -0.43095
C          1.54726        2.99027       -0.63185
C          0.82100        1.92605       -1.18281
N         -0.46792        1.98964       -1.51209
C         -1.09697        3.14966       -1.30131
C          2.96907        2.78930       -0.25383
C          3.89996        3.81937       -0.15434
C          5.18583        3.44693        0.23588
N          5.54522        2.19764        0.49738
C          4.57191        1.27513        0.35498
N          3.31199        1.52368       -0.00204
N          4.96069       -0.01082        0.61379
C          4.24510       -1.21697        0.49486
C          4.96897       -2.42660        0.47974
C          4.24848       -3.60948        0.33810
C          2.86275       -3.65083        0.19504
C          2.17138       -2.44334        0.21690
C          2.85957       -1.24337        0.39384
N          0.78491       -2.30536        0.03875
C         -0.15524       -3.23265       -0.33106
C         -1.47471       -2.60120       -0.67529
C         -1.54990       -1.35831       -1.31101
C         -2.78223       -0.77896       -1.57454
C         -3.96558       -1.41002       -1.19114
C         -3.88386       -2.67740       -0.60749
C         -2.65372       -3.27439       -0.35744
C         -5.30262       -0.70423       -1.34810
N         -5.69257        0.22620       -0.29952
C         -5.02529        1.52272       -0.24760
C         -3.81533        1.57747        0.70289
N         -4.11285        1.06892        2.03902
C         -4.90151        1.97834        2.85116
C         -4.67933       -0.27436        1.94023
C         -5.91443       -0.33982        1.02648
O          0.03666       -4.43652       -0.36432
C          6.47175       -2.44226        0.59955
H         -1.03335        5.19134       -0.61981
H          1.37566        5.04540        0.01288
H          1.32525        0.98073       -1.36655
H         -2.15187        3.17637       -1.56589
H          3.66094        4.85114       -0.38028
H          5.96733        4.19713        0.33884
H          5.94188       -0.07685        0.83987
H          4.79680       -4.54811        0.32478
H          2.33389       -4.58492        0.06405
H          2.31442       -0.31206        0.41927
H          0.44634       -1.35893        0.13001
H         -0.65348       -0.83341       -1.62813
H         -2.81014        0.19040       -2.06564
H         -4.79855       -3.19717       -0.33087
H         -2.59003       -4.25686        0.09966
H         -5.30843       -0.14914       -2.29397
H         -6.09498       -1.46005       -1.42233
H         -4.72349        1.80388       -1.26368
H         -5.76644        2.26809        0.07829
H         -3.45769        2.61127        0.79230
H         -2.99070        0.98193        0.29580
H         -5.91150        2.20609        2.46703
H         -4.36359        2.92761        2.95122
H         -5.01735        1.55159        3.85342
H         -4.93796       -0.62270        2.94756
H         -3.89760       -0.93814        1.55280
H         -6.74300        0.20890        1.49843
H         -6.24849       -1.37753        0.91567
H          6.81708       -2.03099        1.55799
H          6.95203       -1.86549       -0.20156
H          6.85214       -3.46482        0.53549
