68
MOLECULE0-opt-14-13-11-12-060.log	Energy: -992571.3958249
C         -0.47389        4.27469       -0.77189
C          0.87063        4.19219       -0.43051
C          1.54722        2.99028       -0.63156
C          0.82095        1.92610       -1.18258
N         -0.46799        1.98968       -1.51178
C         -1.09707        3.14966       -1.30086
C          2.96909        2.78931       -0.25381
C          3.90000        3.81936       -0.15445
C          5.18593        3.44691        0.23556
N          5.54538        2.19762        0.49690
C          4.57205        1.27511        0.35461
N          3.31204        1.52368       -0.00206
N          4.96088       -0.01086        0.61325
C          4.24519       -1.21698        0.49473
C          4.96898       -2.42665        0.47976
C          4.24841       -3.60951        0.33843
C          2.86265       -3.65081        0.19555
C          2.17136       -2.44327        0.21728
C          2.85964       -1.24330        0.39385
N          0.78483       -2.30529        0.03946
C         -0.15519       -3.23246       -0.33098
C         -1.47462       -2.60096       -0.67531
C         -1.54972       -1.35791       -1.31070
C         -2.78204       -0.77858       -1.57440
C         -3.96544       -1.40982       -1.19146
C         -3.88377       -2.67735       -0.60811
C         -2.65367       -3.27432       -0.35794
C         -5.30247       -0.70404       -1.34849
N         -5.69261        0.22610       -0.29972
C         -5.02557        1.52274       -0.24751
C         -3.81564        1.57756        0.70301
N         -4.11307        1.06865        2.03903
C         -4.90183        1.97775        2.85141
C         -4.67929       -0.27471        1.93995
C         -5.91437       -0.34021        1.02618
O          0.03679       -4.43630       -0.36474
C          6.47176       -2.44239        0.59944
H         -1.03343        5.19129       -0.61921
H          1.37556        5.04537        0.01334
H          1.32521        0.98081       -1.36647
H         -2.15200        3.17634       -1.56533
H          3.66097        4.85114       -0.38036
H          5.96743        4.19713        0.33845
H          5.94209       -0.07689        0.83925
H          4.79666       -4.54818        0.32523
H          2.33374       -4.58488        0.06475
H          2.31457       -0.31194        0.41921
H          0.44630       -1.35884        0.13066
H         -0.65327       -0.83282       -1.62742
H         -2.80992        0.19090       -2.06527
H         -4.79851       -3.19724       -0.33186
H         -2.59001       -4.25693        0.09888
H         -5.30816       -0.14872       -2.29423
H         -6.09480       -1.45987       -1.42302
H         -4.72382        1.80418       -1.26353
H         -5.76687        2.26791        0.07853
H         -3.45825        2.61143        0.79263
H         -2.99085        0.98229        0.29581
H         -5.91191        2.20540        2.46742
H         -4.36409        2.92711        2.95160
H         -5.01752        1.55081        3.85360
H         -4.93789       -0.62333        2.94720
H         -3.89745       -0.93823        1.55244
H         -6.74305        0.20829        1.49824
H         -6.24824       -1.37797        0.91516
H          6.81722       -2.03091        1.55774
H          6.95203       -1.86584       -0.20184
H          6.85208       -3.46499        0.53558
