%RWF=/scratch/bdw2292/Gau-MOLECULE0/,100GB
%Nosave
%Chk=MOLECULE0-opt-14-13-11-12-200.chk
%Mem=20GB
%Nproc=6
#P opt=(maxcycle=5,Loose) wB97XD/6-31G* MaxDisk=100GB

MOLECULE0 Rotatable Bond Optimization on node37.bme.utexas.edu

0 1
 C    7.929680    6.573803   -0.697401
 C    6.748344    5.835160   -0.549718
 C    6.808759    4.447517   -0.308726
 C    8.109057    3.889553   -0.232951
 N    9.247770    4.581242   -0.372168
 C    9.150991    5.898969   -0.599838
 C    5.587204    3.579050   -0.140682
 C    4.258906    4.032116   -0.200677
 C    3.276249    3.054430   -0.020174
 N    3.526641    1.766600    0.196821
 C    4.830863    1.420366    0.240969
 N    5.844866    2.274940    0.081639
 N    5.114061    0.084250    0.468765
 C    4.375596   -1.149873    0.332846
 C    5.099330   -2.382121    0.312008
 C    4.352532   -3.564246    0.176735
 C    2.958724   -3.596689    0.061881
 C    2.263169   -2.383523    0.090541
 C    2.979569   -1.181159    0.218977
 N    0.843900   -2.236314   -0.024952
 C   -0.140917   -3.146898   -0.330192
 C   -1.524844   -2.602124   -0.625734
 C   -1.737594   -1.380986   -1.286303
 C   -3.034046   -0.912210   -1.506055
 C   -4.160028   -1.645157   -1.086920
 C   -3.932689   -2.878301   -0.445968
 C   -2.639122   -3.360151   -0.230640
 C   -5.572662   -1.089537   -1.272975
 N   -6.107562   -0.145879   -0.275282
 C   -5.613643    1.249353   -0.270213
 C   -4.444440    1.509852    0.714025
 N   -4.720366    1.089039    2.107165
 C   -5.491804    2.021134    2.937945
 C   -5.175454   -0.322934    2.103488
 C   -6.328245   -0.622956    1.109342
 O    0.054597   -4.351535   -0.339606
 C    6.613075   -2.471139    0.415144
 H    7.906358    7.643176   -0.885005
 H    5.801682    6.363743   -0.628739
 H    8.229746    2.825617   -0.051504
 H   10.094093    6.431875   -0.708956
 H    3.973973    5.062219   -0.374722
 H    2.221423    3.326636   -0.053924
 H    6.090610   -0.001901    0.707699
 H    4.870634   -4.522292    0.152182
 H    2.422720   -4.531606   -0.047704
 H    2.446531   -0.241680    0.236350
 H    0.522980   -1.283138    0.071373
 H   -0.883740   -0.800067   -1.626239
 H   -3.164942    0.048012   -2.005061
 H   -4.775682   -3.474208   -0.097127
 H   -2.470750   -4.311989    0.266847
 H   -5.625298   -0.594595   -2.253556
 H   -6.277130   -1.932651   -1.321593
 H   -5.403914    1.577248   -1.248775
 H   -6.801495    2.146625    0.251186
 H   -4.188036    3.000894    0.707681
 H   -3.480797    0.983833    0.368565
 H   -6.513493    2.134584    2.558248
 H   -5.008123    3.004433    2.952499
 H   -5.538507    1.655963    3.970382
 H   -5.441651   -0.632667    3.146038
 H   -3.997686   -1.153616    1.676824
 H   -7.575912    0.163742    1.672334
 H   -6.603407   -1.703858    1.110273
 H    6.969565   -2.113396    1.391376
 H    7.105327   -1.865144   -0.358720
 H    6.992758   -3.495533    0.297252

12 11 13 14 F
10 11 13 14 F
19 18 20 21 F
17 18 20 21 F
36 21 22 23 F
20 21 22 23 F
36 21 22 27 F
20 21 22 27 F
24 25 28 29 F
26 25 28 29 F
25 28 29 35 F
25 28 29 30 F

