68
MOLECULE0-opt-23-22-21-36-125.log	Energy: -992571.3957433
C         -0.47398        4.27471       -0.77170
C          0.87060        4.19224       -0.43056
C          1.54715        2.99029       -0.63158
C          0.82078        1.92608       -1.18240
N         -0.46822        1.98963       -1.51137
C         -1.09726        3.14962       -1.30043
C          2.96904        2.78934       -0.25390
C          3.89991        3.81943       -0.15453
C          5.18586        3.44703        0.23546
N          5.54534        2.19775        0.49683
C          4.57205        1.27520        0.35453
N          3.31203        1.52372       -0.00218
N          4.96090       -0.01074        0.61323
C          4.24524       -1.21689        0.49466
C          4.96911       -2.42652        0.47951
C          4.24857       -3.60941        0.33824
C          2.86280       -3.65076        0.19559
C          2.17144       -2.44326        0.21748
C          2.85968       -1.24326        0.39401
N          0.78487       -2.30538        0.03984
C         -0.15510       -3.23258       -0.33061
C         -1.47457       -2.60118       -0.67497
C         -1.54969       -1.35820       -1.31048
C         -2.78202       -0.77897       -1.57432
C         -3.96541       -1.41020       -1.19134
C         -3.88372       -2.67765       -0.60782
C         -2.65360       -3.27456       -0.35757
C         -5.30247       -0.70447       -1.34845
N         -5.69258        0.22579       -0.29982
C         -5.02584        1.52258       -0.24796
C         -3.81585        1.57785        0.70246
N         -4.11309        1.06917        2.03862
C         -4.90203        1.97829        2.85081
C         -4.67904       -0.27435        1.93987
C         -5.91416       -0.34028        1.02621
O          0.03692       -4.43643       -0.36436
C          6.47191       -2.44218        0.59894
H         -1.03349        5.19132       -0.61900
H          1.37562        5.04546        0.01312
H          1.32500        0.98078       -1.36635
H         -2.15225        3.17628       -1.56467
H          3.66084        4.85120       -0.38043
H          5.96733        4.19727        0.33836
H          5.94212       -0.07676        0.83919
H          4.79686       -4.54806        0.32492
H          2.33391       -4.58486        0.06484
H          2.31456       -0.31193        0.41949
H          0.44626       -1.35898        0.13121
H         -0.65326       -0.83303       -1.62714
H         -2.80994        0.19043       -2.06534
H         -4.79843       -3.19753       -0.33150
H         -2.58992       -4.25712        0.09936
H         -5.30818       -0.14932       -2.29429
H         -6.09478       -1.46035       -1.42287
H         -4.72421        1.80388       -1.26405
H         -5.76728        2.26768        0.07799
H         -3.45862        2.61177        0.79182
H         -2.99100        0.98259        0.29535
H         -5.91218        2.20556        2.46680
H         -4.36453        2.92782        2.95069
H         -5.01752        1.55158        3.85313
H         -4.93746       -0.62279        2.94723
H         -3.89709       -0.93776        1.55241
H         -6.74291        0.20820        1.49821
H         -6.24790       -1.37811        0.91546
H          6.81749       -2.03091        1.55729
H          6.95199       -1.86540       -0.20228
H          6.85229       -3.46474        0.53478
