68
MOLECULE0-opt-2-3-7-8-003.log	Energy: -992571.3957120
C         -0.47475        4.27461       -0.77128
C          0.86979        4.19215       -0.42996
C          1.54654        2.99041       -0.63151
C          0.82037        1.92633       -1.18288
N         -0.46860        1.98986       -1.51202
C         -1.09780        3.14969       -1.30065
C          2.96844        2.78951       -0.25385
C          3.89910        3.81977       -0.15418
C          5.18511        3.44753        0.23578
N          5.54481        2.19825        0.49684
C          4.57171        1.27554        0.35426
N          3.31163        1.52391       -0.00237
N          4.96090       -0.01041        0.61237
C          4.24539       -1.21665        0.49423
C          4.96935       -2.42624        0.47964
C          4.24893       -3.60924        0.33870
C          2.86317       -3.65078        0.19595
C          2.17172       -2.44332        0.21730
C          2.85985       -1.24319        0.39333
N          0.78513       -2.30557        0.03970
C         -0.15480       -3.23286       -0.33069
C         -1.47429       -2.60145       -0.67501
C         -1.54940       -1.35858       -1.31077
C         -2.78173       -0.77925       -1.57448
C         -3.96510       -1.41033       -1.19119
C         -3.88342       -2.67767       -0.60743
C         -2.65332       -3.27465       -0.35726
C         -5.30216       -0.70460       -1.34838
N         -5.69234        0.22578       -0.29986
C         -5.02519        1.52240       -0.24796
C         -3.81533        1.57729        0.70264
N         -4.11289        1.06869        2.03876
C         -4.90164        1.97803        2.85084
C         -4.67920       -0.27466        1.93995
C         -5.91424       -0.34025        1.02614
O          0.03730       -4.43668       -0.36434
C          6.47213       -2.44173        0.59933
H         -1.03441        5.19106       -0.61818
H          1.37460        5.04520        0.01427
H          1.32473        0.98118       -1.36719
H         -2.15274        3.17636       -1.56512
H          3.65983        4.85154       -0.37985
H          5.96641        4.19790        0.33903
H          5.94206       -0.07618        0.83866
H          4.79732       -4.54783        0.32580
H          2.33435       -4.58496        0.06547
H          2.31465       -0.31189        0.41842
H          0.44650       -1.35915        0.13087
H         -0.65290       -0.83376       -1.62782
H         -2.80961        0.19010       -2.06559
H         -4.79815       -3.19742       -0.33091
H         -2.58965       -4.25711        0.09986
H         -5.30789       -0.14956       -2.29429
H         -6.09445       -1.46050       -1.42271
H         -4.72323        1.80350       -1.26400
H         -5.76649        2.26777        0.07776
H         -3.45776        2.61111        0.79210
H         -2.99062        0.98181        0.29558
H         -5.91162        2.20581        2.46664
H         -4.36379        2.92733        2.95101
H         -5.01762        1.55127        3.85308
H         -4.93786       -0.62304        2.94727
H         -3.89740       -0.93831        1.55260
H         -6.74286        0.20841        1.49802
H         -6.24822       -1.37798        0.91527
H          6.81748       -2.03018        1.55764
H          6.95233       -1.86513       -0.20195
H          6.85262       -3.46427        0.53548
