68
MOLECULE0-opt-29-28-25-24-157.log	Energy: -992574.9333280
C         -1.63795        4.87812       -0.35380
C         -2.94101        4.39827       -0.30558
C         -3.16228        3.08140        0.09376
C         -2.04091        2.31432        0.43694
N         -0.78612        2.75732        0.38613
C         -0.59895        4.02037       -0.00867
C         -4.50999        2.46118        0.12994
C         -5.69547        3.18131        0.24870
C         -6.87091        2.43129        0.23895
N         -6.90209        1.10937        0.14040
C         -5.69752        0.50917        0.05247
N         -4.51863        1.12950        0.03227
N         -5.74282       -0.85535       -0.02305
C         -4.69958       -1.80050       -0.00956
C         -5.02134       -3.13602        0.30542
C         -3.98181       -4.06029        0.33751
C         -2.65249       -3.72557        0.09094
C         -2.35864       -2.40081       -0.22277
C         -3.38305       -1.45599       -0.29686
N         -1.06442       -1.90508       -0.46208
C          0.14642       -2.52354       -0.28387
C          1.33107       -1.61061       -0.43046
C          1.28228       -0.23847       -0.17281
C          2.42551        0.54118       -0.31319
C          3.63116       -0.02582       -0.71971
C          3.68036       -1.40229       -0.95960
C          2.54699       -2.18659       -0.80720
C          4.86207        0.83038       -0.92727
N          6.08318        0.17122       -0.50270
C          7.27485        0.84488       -1.00194
C          8.52186        0.04710       -0.60920
N          8.64040       -0.18585        0.82447
C          9.07310        0.98196        1.57175
C          7.40438       -0.77590        1.32568
C          6.14852        0.01273        0.94683
O          0.27366       -3.71296       -0.04064
C         -6.43814       -3.55030        0.61236
H         -1.42795        5.89498       -0.66763
H         -3.76969        5.03484       -0.60229
H         -2.18283        1.29104        0.77445
H          0.43339        4.35973       -0.05236
H         -5.72008        4.25809        0.36132
H         -7.83781        2.92367        0.32106
H         -6.68466       -1.21154        0.04151
H         -4.21681       -5.09390        0.57888
H         -1.86500       -4.46349        0.14541
H         -3.15299       -0.43140       -0.54843
H         -1.03118       -0.93974       -0.75331
H          0.37828        0.24947        0.18295
H          2.36754        1.60366       -0.09079
H          4.62739       -1.84754       -1.24898
H          2.58340       -3.25797       -0.97571
H          4.96044        1.04626       -1.99956
H          4.72142        1.80752       -0.42356
H          7.21147        0.90898       -2.09460
H          7.34574        1.88236       -0.61760
H          9.42357        0.55775       -0.96464
H          8.47089       -0.92974       -1.10661
H          8.37777        1.83930        1.54851
H         10.03585        1.32362        1.17657
H          9.22130        0.70260        2.62032
H          7.47315       -0.87646        2.41421
H          7.31444       -1.78399        0.90135
H          6.14081        0.99866        1.45356
H          5.25999       -0.53026        1.28424
H         -7.11460       -3.38275       -0.23697
H         -6.84637       -3.00732        1.47454
H         -6.48364       -4.61641        0.84864
