68
MOLECULE0-opt-29-28-25-24-187.log	Energy: -992574.9333154
C         -1.63766        4.87817       -0.35196
C         -2.94075        4.39833       -0.30433
C         -3.16218        3.08119        0.09408
C         -2.04090        2.31386        0.43700
N         -0.78608        2.75684        0.38673
C         -0.59876        4.02014       -0.00718
C         -4.50995        2.46105        0.12966
C         -5.69544        3.18124        0.24795
C         -6.87093        2.43132        0.23759
N         -6.90218        1.10940        0.13891
C         -5.69762        0.50913        0.05152
N         -4.51866        1.12937        0.03187
N         -5.74294       -0.85539       -0.02408
C         -4.69964       -1.80050       -0.00992
C         -5.02130       -3.13579        0.30611
C         -3.98172       -4.05998        0.33870
C         -2.65245       -3.72533        0.09176
C         -2.35868       -2.40077       -0.22287
C         -3.38319       -1.45609       -0.29763
N         -1.06448       -1.90513       -0.46246
C          0.14636       -2.52349       -0.28388
C          1.33100       -1.61057       -0.43054
C          1.28216       -0.23839       -0.17314
C          2.42540        0.54125       -0.31354
C          3.63110       -0.02580       -0.71985
C          3.68035       -1.40232       -0.95950
C          2.54697       -2.18660       -0.80707
C          4.86201        0.83039       -0.92743
N          6.08312        0.17122       -0.50279
C          7.27480        0.84477       -1.00219
C          8.52175        0.04690       -0.60944
N          8.64033       -0.18589        0.82424
C          9.07326        0.98194        1.57136
C          7.40433       -0.77577        1.32562
C          6.14850        0.01293        0.94678
O          0.27360       -3.71284       -0.04031
C         -6.43802       -3.54988        0.61364
H         -1.42755        5.89524       -0.66502
H         -3.76931        5.03517       -0.60080
H         -2.18289        1.29037        0.77382
H          0.43360        4.35949       -0.05041
H         -5.72008        4.25801        0.36066
H         -7.83782        2.92378        0.31928
H         -6.68480       -1.21159        0.03999
H         -4.21660       -5.09343        0.58084
H         -1.86490       -4.46316        0.14663
H         -3.15324       -0.43166       -0.54999
H         -1.03124       -0.93984       -0.75389
H          0.37814        0.24962        0.18245
H          2.36740        1.60377       -0.09133
H          4.62741       -1.84760       -1.24871
H          2.58339       -3.25801       -0.97539
H          4.96046        1.04615       -1.99974
H          4.72136        1.80756       -0.42382
H          7.21132        0.90875       -2.09485
H          7.34579        1.88229       -0.61798
H          9.42352        0.55738       -0.96500
H          8.47058       -0.92999       -1.10674
H          8.37802        1.83936        1.54811
H         10.03600        1.32346        1.17603
H          9.22155        0.70266        2.61993
H          7.47319       -0.87622        2.41414
H          7.31425       -1.78388        0.90141
H          6.14091        0.99892        1.45339
H          5.25993       -0.52995        1.28427
H         -7.11454       -3.38367       -0.23590
H         -6.84630       -3.00571        1.47504
H         -6.48332       -4.61566        0.85144
