68
MOLECULE0-opt-15-14-13-11-247.log	Energy: -992571.9110290
C          0.60439        4.16819       -0.06524
C         -0.77426        4.15642        0.10527
C         -1.47717        2.98194       -0.16079
C         -0.73721        1.87417       -0.59801
N          0.58407        1.86854       -0.75386
C          1.24141        3.00381       -0.48719
C         -2.94140        2.84647        0.03052
C         -3.83132        3.91768        0.08768
C         -5.16985        3.59382        0.29838
N         -5.62139        2.35104        0.42166
C         -4.68115        1.39135        0.32599
N         -3.37695        1.59065        0.15474
N         -5.14916        0.10698        0.42002
C         -4.45947       -1.10155        0.20319
C         -5.19178       -2.22467       -0.22741
C         -4.48861       -3.40278       -0.46293
C         -3.10861       -3.51084       -0.31210
C         -2.40582       -2.38994        0.12454
C         -3.08747       -1.20736        0.41016
N         -1.01013       -2.34948        0.31370
C         -0.06290       -3.22555       -0.15300
C          1.34981       -2.80224        0.13690
C          1.71020       -2.09231        1.28536
C          3.03771       -1.74886        1.50833
C          4.03110       -2.08479        0.58685
C          3.66205       -2.80516       -0.55143
C          2.34024       -3.16965       -0.77295
C          5.48380       -1.69663        0.82081
N          5.91162       -0.36442        0.43475
C          5.56220        0.75296        1.30121
C          4.31039        1.52450        0.85415
N          4.36487        1.92284       -0.55110
C          5.28535        3.01474       -0.82145
C          4.58390        0.73880       -1.38209
C          5.85081       -0.03465       -0.98365
O         -0.31617       -4.25094       -0.76294
C         -6.68171       -2.15143       -0.44454
H          1.18230        5.06353        0.13969
H         -1.28897        5.04310        0.46513
H         -1.25851        0.95082       -0.83642
H          2.32312        2.95060       -0.61407
H         -3.51932        4.94724       -0.03630
H         -5.92084        4.37850        0.36516
H         -6.15525        0.06363        0.48135
H         -5.04101       -4.27584       -0.80108
H         -2.58905       -4.42989       -0.54235
H         -2.54177       -0.34214        0.75770
H         -0.65766       -1.45660        0.62774
H          0.96399       -1.84436        2.03570
H          3.30816       -1.22365        2.42166
H          4.42524       -3.09791       -1.26889
H          2.05782       -3.74789       -1.64672
H          5.71522       -1.81639        1.88609
H          6.11993       -2.41138        0.28270
H          5.43225        0.38100        2.32360
H          6.41566        1.44765        1.32609
H          4.18001        2.42207        1.47162
H          3.41631        0.90221        0.97918
H          6.34748        2.80485       -0.61104
H          4.99376        3.88354       -0.22014
H          5.20364        3.29323       -1.87756
H          4.64534        1.05009       -2.43161
H          3.70121        0.09694       -1.27750
H          6.73626        0.56757       -1.23758
H          5.92444       -0.96020       -1.56485
H         -6.95035       -1.37079       -1.16729
H         -7.22645       -1.94359        0.48665
H         -7.06189       -3.10023       -0.83177
