68
MOLECULE0-opt-23-22-21-36-305.log	Energy: -992571.9110541
C         -0.60499        4.16824       -0.06477
C          0.77374        4.15651        0.10536
C          1.47661        2.98203       -0.16081
C          0.73653        1.87419       -0.59770
N         -0.58478        1.86852       -0.75322
C         -1.24206        3.00382       -0.48649
C          2.94091        2.84666        0.03005
C          3.83073        3.91798        0.08664
C          5.16936        3.59433        0.29706
N          5.62105        2.35164        0.42062
C          4.68089        1.39181        0.32553
N          3.37662        1.59090        0.15452
N          5.14910        0.10753        0.42005
C          4.45964       -1.10120        0.20353
C          5.19218       -2.22435       -0.22659
C          4.48921       -3.40264       -0.46185
C          3.10921       -3.51080       -0.31128
C          2.40617       -2.38986        0.12484
C          3.08760       -1.20709        0.41024
N          1.01043       -2.34956        0.31352
C          0.06342       -3.22574       -0.15339
C         -1.34940       -2.80266        0.13643
C         -2.33957       -3.16981       -0.77383
C         -3.66145       -2.80538       -0.55257
C         -4.03083       -2.08538        0.58584
C         -3.03770       -1.74973        1.50771
C         -1.71013       -2.09310        1.28500
C         -5.48365       -1.69744        0.81957
N         -5.91128       -0.36495        0.43446
C         -5.85102       -0.03418       -0.98372
C         -4.58431        0.73965       -1.38200
N         -4.36508        1.92308       -0.55022
C         -5.28581        3.01505       -0.81939
C         -4.31009        1.52375        0.85472
C         -5.56171        0.75183        1.30165
O          0.31697       -4.25101       -0.76340
C          6.68214       -2.15097       -0.44350
H         -1.18285        5.06357        0.14026
H          1.28851        5.04324        0.46502
H          1.25777        0.95082       -0.83615
H         -2.32378        2.95057       -0.61304
H          3.51859        4.94746       -0.03761
H          5.92028        4.37912        0.36336
H          6.15521        0.06441        0.48123
H          5.04179       -4.27573       -0.79965
H          2.58980       -4.42999       -0.54137
H          2.54169       -0.34177        0.75722
H          0.65778       -1.45685        0.62781
H         -2.05687       -3.74778       -1.64768
H         -4.42446       -3.09794       -1.27031
H         -3.30841       -1.22479        2.42113
H         -0.96416       -1.84546        2.03567
H         -6.11957       -2.41176        0.28065
H         -5.71547       -1.81809        1.88468
H         -5.92474       -0.95933       -1.56555
H         -6.73664        0.56812       -1.23697
H         -4.64613        1.05171       -2.43126
H         -3.70156        0.09773       -1.27819
H         -6.34781        2.80493       -0.60851
H         -5.20479        3.29421       -1.87538
H         -4.99397        3.88355       -0.21774
H         -4.17952        2.42089        1.47281
H         -3.41597        0.90144        0.97904
H         -6.41523        1.44641        1.32733
H         -5.43141        0.37914        2.32373
H          7.22674       -1.94297        0.48774
H          6.95080       -1.37037       -1.16630
H          7.06248       -3.09976       -0.83058
