68
MOLECULE0-opt-29-28-25-24-127.log	Energy: -992570.4030861
C         -1.22648        4.80688       -0.67097
C         -2.52753        4.35122       -0.49642
C         -2.73261        3.05558       -0.02538
C         -1.59719        2.28439        0.25714
N         -0.34508        2.70384        0.08507
C         -0.17424        3.94645       -0.37663
C         -4.08085        2.45782        0.14128
C         -5.24366        3.19857        0.33402
C         -6.42534        2.46597        0.44041
N         -6.48110        1.14221        0.38309
C         -5.29515        0.52204        0.21714
N         -4.11416        1.12436        0.08498
N         -5.36216       -0.84346        0.18390
C         -4.33195       -1.80123        0.12881
C         -4.63964       -3.12746        0.49356
C         -3.61016       -4.06303        0.45691
C         -2.30226       -3.74854        0.09525
C         -2.02347       -2.43348       -0.26791
C         -3.04041       -1.47826       -0.27315
N         -0.75114       -1.95584       -0.63008
C          0.46490       -2.58361       -0.55879
C          1.63412       -1.68565       -0.85372
C          1.62075       -0.30585       -0.62956
C          2.73849        0.46209       -0.93271
C          3.89477       -0.12075       -1.45177
C          3.89898       -1.50119       -1.67042
C          2.79038       -2.27819       -1.36393
C          5.12623        0.72148       -1.75280
N          6.11101        0.90662       -0.70094
C          6.90926       -0.25143       -0.31544
C          6.33386       -1.03325        0.87787
N          6.04222       -0.18369        2.02954
C          7.22336        0.24569        2.75670
C          5.16538        0.91188        1.62566
C          5.72393        1.72277        0.44397
O          0.60828       -3.76797       -0.30144
C         -6.03087       -3.52086        0.92111
H         -1.02958        5.80553       -1.04579
H         -3.36947        4.98814       -0.75223
H         -1.72390        1.27844        0.64846
H          0.85548        4.26584       -0.51941
H         -5.24505        4.27847        0.41574
H         -7.37667        2.97434        0.58382
H         -6.29965       -1.18621        0.33145
H         -3.83510       -5.08927        0.73623
H         -1.52036       -4.49444        0.09827
H         -2.82092       -0.46172       -0.56323
H         -0.73745       -0.99763       -0.94535
H          0.76291        0.19848       -0.19173
H          2.70310        1.53353       -0.75008
H          4.78641       -1.97311       -2.08631
H          2.79827       -3.35197       -1.52058
H          5.64896        0.28107       -2.61113
H          4.79734        1.72054       -2.06606
H          7.01974       -0.91062       -1.18405
H          7.91849        0.10426       -0.05891
H          7.03603       -1.81718        1.18640
H          5.39914       -1.52412        0.58271
H          7.92468        0.88451        2.19121
H          7.77669       -0.63836        3.09194
H          6.91189        0.80273        3.64720
H          5.00073        1.56993        2.48752
H          4.19671        0.47785        1.35233
H          6.61291        2.27810        0.77878
H          4.99164        2.46890        0.11491
H         -6.77118       -3.36426        0.12454
H         -6.36435       -2.95544        1.80092
H         -6.06640       -4.58121        1.18354
