%RWF=/scratch/bdw2292/Gau-MOLECULE0/,100GB
%Nosave
%Chk=MOLECULE0-opt-23-22-21-20-306.chk
%Mem=20GB
%Nproc=6
#P opt=(,maxcycle=400) wB97XD/6-31G* MaxDisk=100GB

MOLECULE0 Rotatable Bond Optimization on node37.bme.utexas.edu

0 1
 C   -1.586551   -2.749084   -8.276252
 C   -0.256812   -3.188902   -8.320858
 C    0.426579   -3.496696   -7.126621
 C   -0.322510   -3.344321   -5.934180
 N   -1.593526   -2.928586   -5.872516
 C   -2.207382   -2.634782   -7.027930
 C    1.860431   -3.965431   -7.086918
 C    2.660658   -4.200875   -8.217287
 C    3.963245   -4.638756   -7.960564
 N    4.464522   -4.826274   -6.744428
 C    3.630212   -4.564904   -5.715658
 N    2.367275   -4.148757   -5.849926
 N    4.186062   -4.757892   -4.461711
 C    3.683941   -4.682359   -3.114159
 C    4.435879   -5.296976   -2.066371
 C    3.916365   -5.206941   -0.765297
 C    2.719939   -4.555954   -0.448895
 C    1.998668   -3.948808   -1.482800
 C    2.487399   -4.024609   -2.798783
 N    0.755311   -3.255361   -1.322027
 C   -0.075064   -3.148640   -0.230395
 C   -1.449342   -2.565195   -0.472425
 C   -1.631394   -1.321056   -1.095469
 C   -2.918952   -0.831981   -1.326802
 C   -4.060966   -1.562706   -0.946425
 C   -3.859816   -2.803610   -0.311281
 C   -2.576229   -3.301628   -0.076320
 C   -5.467286   -1.001182   -1.161205
 N   -6.030270   -0.066500   -0.170518
 C   -5.535330    1.327774   -0.136867
 C   -4.400838    1.585556    0.887868
 N   -4.722334    1.152253    2.267570
 C   -5.528882    2.073101    3.077480
 C   -5.166863   -0.262493    2.236720
 C   -6.285840   -0.556878    1.203454
 O    0.257146   -3.486532    0.893528
 C    5.741846   -6.040773   -2.290194
 H   -2.128395   -2.500349   -9.184016
 H    0.221735   -3.270170   -9.293621
 H    0.124987   -3.588591   -4.977065
 H   -3.239711   -2.298679   -6.945649
 H    2.323593   -4.076145   -9.238849
 H    4.644738   -4.851655   -8.783722
 H    5.127576   -5.104255   -4.569302
 H    4.458544   -5.669326    0.058511
 H    2.353310   -4.517168    0.569689
 H    1.938959   -3.564821   -3.606616
 H    0.396353   -2.834311   -2.167833
 H   -0.759058   -0.744174   -1.392800
 H   -3.030531    0.139162   -1.809364
 H   -4.715599   -3.392221    0.018359
 H   -2.429083   -4.259331    0.416524
 H   -5.489512   -0.492790   -2.136269
 H   -6.170848   -1.843647   -1.231496
 H   -5.287605    1.664840   -1.114237
 H   -6.741991    2.222721    0.348363
 H   -4.142989    3.035761    0.901419
 H   -3.402708    1.043680    0.560732
 H   -6.535848    2.186432    2.660492
 H   -5.050065    3.057987    3.119838
 H   -5.612971    1.697519    4.103774
 H   -5.451098   -0.580893    3.248284
 H   -3.955051   -1.089724    1.825007
 H   -7.553048    0.206421    1.733730
 H   -6.554077   -1.678337    1.186601
 H    6.526883   -5.368564   -2.664094
 H    5.622813   -6.850811   -3.023349
 H    6.134905   -6.503805   -1.374674

20 21 22 23 F
36 21 22 23 F
36 21 22 27 F
20 21 22 27 F
8 7 3 2 F
12 7 3 2 F
8 7 3 4 F
12 7 3 4 F
14 13 11 12 F
14 13 11 10 F
15 14 13 11 F
19 14 13 11 F
19 18 20 21 F
17 18 20 21 F
22 21 20 18 F
36 21 20 18 F
29 28 25 24 F
29 28 25 26 F
25 28 29 35 F
25 28 29 30 F

