68
MOLECULE0-opt-15-14-13-11-331.log	Energy: -992566.5947186
C         -7.80369        2.47524       -2.16527
C         -7.43215        2.20417       -0.85544
C         -6.22160        1.55405       -0.61409
C         -5.44572        1.19956       -1.72560
N         -5.78902        1.45644       -2.98680
C         -6.94955        2.08411       -3.19127
C         -5.74828        1.22288        0.75228
C         -6.23906        1.84943        1.89875
C         -5.70714        1.42352        3.11067
N         -4.78237        0.47702        3.21602
C         -4.37105       -0.05037        2.04778
N         -4.80331        0.28183        0.83011
N         -3.41961       -1.02646        2.15049
C         -2.71855       -1.61727        1.06641
C         -3.37157       -2.42910        0.12784
C         -2.58404       -2.98924       -0.87786
C         -1.21044       -2.79963       -0.96490
C         -0.57515       -2.00942       -0.00506
C         -1.34258       -1.41719        0.99891
N          0.81245       -1.76748        0.01772
C          1.77343       -2.21792       -0.85235
C          3.17779       -1.82060       -0.49445
C          3.60558       -1.59362        0.81588
C          4.92816       -1.25066        1.07183
C          5.84984       -1.11524        0.03293
C          5.42076       -1.37894       -1.27039
C          4.10435       -1.72972       -1.53429
C          7.28236       -0.68043        0.30797
N          7.57894        0.74155        0.30561
C          7.08390        1.53872        1.42148
C          5.72467        2.20714        1.15435
N          5.69649        2.96556       -0.09312
C          6.40988        4.22904       -0.02833
C          6.11146        2.10967       -1.20169
C          7.47835        1.44424       -0.96854
O          1.53751       -2.87998       -1.84954
C         -4.84712       -2.70865        0.19476
H         -8.74127        2.97301       -2.38915
H         -8.09069        2.47875       -0.03668
H         -4.50143        0.68522       -1.57035
H         -7.20883        2.27968       -4.22956
H         -6.97661        2.64097        1.86305
H         -6.04021        1.86937        4.04600
H         -3.02141       -1.10888        3.07448
H         -3.06492       -3.61933       -1.62166
H         -0.63370       -3.25634       -1.75604
H         -0.87200       -0.77522        1.74097
H          1.12059       -1.11252        0.72027
H          2.92424       -1.72716        1.65249
H          5.25092       -1.09068        2.09805
H          6.13181       -1.30774       -2.09029
H          3.77348       -1.94615       -2.54467
H          7.58971       -1.07428        1.28466
H          7.93725       -1.14874       -0.43770
H          7.02845        0.90404        2.31353
H          7.83041        2.31794        1.63650
H          5.46716        2.87939        1.98196
H          4.94225        1.44131        1.09412
H          7.49590        4.15273        0.15533
H          5.98014        4.84176        0.77160
H          6.27017        4.76515       -0.97321
H          6.13674        2.70837       -2.12024
H          5.34229        1.33942       -1.33230
H          8.26214        2.21573       -0.99212
H          7.70436        0.74205       -1.77897
H         -5.41710       -1.89133       -0.25915
H         -5.18393       -2.80146        1.23237
H         -5.08798       -3.63706       -0.33104
