68
MOLECULE0-opt-29-28-25-24-057.log	Energy: -992570.0298121
C         -1.26628        4.90281        0.30857
C         -2.50277        4.29012        0.46273
C         -2.69157        3.00562       -0.04658
C         -1.61101        2.39624       -0.69742
N         -0.41942        2.97658       -0.84942
C         -0.25974        4.20432       -0.34930
C         -3.97906        2.28486        0.10545
C         -5.20268        2.94804        0.17883
C         -6.32870        2.14871        0.34945
N         -6.28109        0.82648        0.43132
C         -5.05118        0.28320        0.32616
N         -3.90711        0.95082        0.17336
N         -5.05031       -1.08500        0.41129
C         -4.01161       -2.02539        0.33798
C         -4.31994       -3.36221        0.66559
C         -3.29648       -4.30224        0.59633
C         -2.00403       -3.96447        0.21209
C         -1.72170       -2.64061       -0.11309
C         -2.71959       -1.67250       -0.04641
N         -0.39636       -2.28917       -0.46177
C         -0.01283       -1.23490       -1.25078
C          1.46753       -1.02815       -1.37047
C          2.39505       -2.07157       -1.35436
C          3.75343       -1.80153       -1.47684
C          4.21481       -0.49044       -1.60239
C          3.27438        0.54175       -1.64895
C          1.91477        0.28530       -1.53728
C          5.70565       -0.19200       -1.66451
N          6.40348        0.07526       -0.41800
C          6.56963       -1.03708        0.50973
C          5.46568       -1.12696        1.57708
N          5.26046        0.12929        2.29335
C          6.30334        0.43077        3.25787
C          5.00908        1.20584        1.33858
C          6.10439        1.32830        0.26590
O         -0.80198       -0.48647       -1.80546
C         -5.71036       -3.76790        1.08389
H         -1.08026        5.89652        0.70210
H         -3.30252        4.79566        0.99695
H         -1.71194        1.40123       -1.12141
H          0.72393        4.65025       -0.48048
H         -5.28757        4.02337        0.08357
H         -7.31840        2.59550        0.42174
H         -5.98099       -1.44501        0.55923
H         -3.51900       -5.33609        0.84727
H         -1.23001       -4.72473        0.15645
H         -2.49609       -0.64886       -0.28612
H          0.33528       -2.81968       -0.01420
H          2.06421       -3.10554       -1.28801
H          4.46678       -2.62260       -1.47733
H          3.61442        1.56784       -1.77087
H          1.19004        1.09585       -1.56426
H          6.21347       -1.03851       -2.14397
H          5.86337        0.67692       -2.31547
H          6.62259       -1.97094       -0.06174
H          7.54281       -0.91808        1.00907
H          5.70898       -1.91168        2.30371
H          4.51525       -1.39703        1.10172
H          7.31339        0.57808        2.83651
H          6.36337       -0.38523        3.98643
H          6.03460        1.34400        3.80006
H          4.91575        2.15069        1.88766
H          4.04309        1.00666        0.86053
H          7.03156        1.68501        0.73887
H          5.82285        2.08022       -0.47988
H         -6.44940       -3.59266        0.29022
H         -6.04491       -3.22247        1.97569
H         -5.74552       -4.83415        1.32175
