68
MOLECULE0-opt-29-28-25-24-037.log	Energy: -992570.3836333
C         -1.08743        4.77913       -0.82118
C         -2.38849        4.35049       -0.58780
C         -2.59934        3.05869       -0.10855
C         -1.46883        2.26331        0.12119
N         -0.21739        2.65671       -0.10805
C         -0.04138        3.89615       -0.57603
C         -3.95113        2.48960        0.11872
C         -5.08775        3.25684        0.35838
C         -6.27960        2.55158        0.51907
N         -6.36688        1.22915        0.47110
C         -5.20308        0.58187        0.25809
N         -4.01582        1.15692        0.07064
N         -5.30186       -0.78196        0.23771
C         -4.29407       -1.76198        0.15984
C         -4.60843       -3.07055        0.57843
C         -3.59962       -4.02731        0.51978
C         -2.30551       -3.74880        0.08717
C         -2.01926       -2.45022       -0.32629
C         -3.01796       -1.47581       -0.31362
N         -0.75326       -2.00987       -0.75376
C          0.45778       -2.64503       -0.66029
C          1.64124       -1.77126       -0.97080
C          1.63515       -0.38127       -0.81980
C          2.77731        0.35775       -1.10019
C          3.95449       -0.26426       -1.51740
C          3.94891       -1.65280       -1.67385
C          2.81299       -2.40046       -1.39413
C          5.22441        0.54110       -1.75019
N          6.08798        0.80044       -0.61025
C          6.77040       -0.34407       -0.01695
C          6.01421       -0.97278        1.16541
N          5.64323        0.00286        2.18723
C          6.75532        0.44623        3.00821
C          4.88471        1.09139        1.57752
C          5.61709        1.74747        0.39457
O          0.58833       -3.82128       -0.36173
C         -5.98392       -3.42343        1.08487
H         -0.88694        5.77402       -1.20397
H         -3.22743        5.00549       -0.80472
H         -1.59866        1.25949        0.51706
H          0.98750        4.19342       -0.76505
H         -5.06110        4.33676        0.43506
H         -7.21263        3.08143        0.70013
H         -6.23895       -1.10208        0.43153
H         -3.82925       -5.04017        0.84105
H         -1.53760       -4.50888        0.07713
H         -2.79369       -0.47197       -0.64254
H         -0.73262       -1.06093       -1.09526
H          0.76670        0.15641       -0.44809
H          2.74807        1.43658       -0.96645
H          4.85272       -2.15562       -2.01078
H          2.81428       -3.48081       -1.49602
H          5.83172        0.02544       -2.50496
H          4.95322        1.51437       -2.17800
H          6.94768       -1.09398       -0.79642
H          7.75950       -0.00645        0.32719
H          6.62636       -1.75564        1.62929
H          5.09240       -1.44423        0.80520
H          7.55760        0.98639        2.47461
H          7.20949       -0.42450        3.49371
H          6.37685        1.10901        3.79417
H          4.66573        1.84344        2.34529
H          3.92815        0.67781        1.23886
H          6.49185        2.29561        0.77560
H          4.96964        2.48678       -0.09110
H         -6.75786       -3.28415        0.31755
H         -6.26717       -2.81970        1.95683
H         -6.02348       -4.47237        1.38928
