10
MonoMethylPhosphate1H-opt.log	Energy: -428509.5556278
H         -0.32885        1.99946       -0.50656
O         -0.51075        1.18198       -0.98685
P         -0.49422       -0.06889        0.09332
O          0.94199       -0.78370       -0.27554
O         -1.54158       -1.05293       -0.31903
O         -0.43446        0.51998        1.47321
C          2.12664       -0.04911       -0.02278
H          2.13817        0.88916       -0.59188
H          2.97087       -0.66525       -0.34198
H          2.23168        0.18189        1.04299
